<?xml version="1.0" encoding="UTF-8"?>

<!-- generated on 2022-03-05 10:38:36 by Eclipse SUMO duarouter Version 1.12.0
<configuration xmlns:xsi="http://www.w3.org/2001/XMLSchema-instance" xsi:noNamespaceSchemaLocation="http://sumo.dlr.de/xsd/duarouterConfiguration.xsd">

    <input>
        <net-file value="/home/osboxes/Documents/mhp_hackathon/sumo/tools/2022-03-05-10-38-07/osm.net.xml"/>
        <route-files value="/home/osboxes/Documents/mhp_hackathon/sumo/tools/2022-03-05-10-38-07/osm.passenger.trips.xml"/>
    </input>

    <output>
        <output-file value="/home/osboxes/Documents/mhp_hackathon/sumo/tools/2022-03-05-10-38-07/osm.passenger.trips.xml.tmp"/>
        <write-trips value="true"/>
    </output>

    <time>
        <begin value="0"/>
        <end value="1000"/>
    </time>

    <report>
        <no-warnings value="true"/>
        <ignore-errors value="true"/>
        <no-step-log value="true"/>
    </report>

</configuration>
-->

<routes xmlns:xsi="http://www.w3.org/2001/XMLSchema-instance" xsi:noNamespaceSchemaLocation="http://sumo.dlr.de/xsd/routes_file.xsd">
    <vType id="veh_passenger" vClass="passenger"/>
    <trip id="veh0" type="veh_passenger" depart="0.00" departLane="best" from="24736783#1" to="617887683#2"/>
    <trip id="veh1" type="veh_passenger" depart="4.29" departLane="best" from="569404611#0" to="617887683#2"/>
    <trip id="veh2" type="veh_passenger" depart="8.58" departLane="best" departSpeed="max" from="569404635#0" to="617887683#2"/>
    <trip id="veh3" type="veh_passenger" depart="12.87" departLane="best" departSpeed="max" from="569404596#0" to="617887683#2"/>
    <trip id="veh4" type="veh_passenger" depart="17.16" departLane="best" departSpeed="max" from="24734959#0" to="617887683#2"/>
    <trip id="veh5" type="veh_passenger" depart="21.45" departLane="best" departSpeed="max" from="-24703691#2" to="617887683#2"/>
    <trip id="veh6" type="veh_passenger" depart="25.74" departLane="best" from="617638495#0" to="617887683#2"/>
    <trip id="veh7" type="veh_passenger" depart="30.03" departLane="best" from="24734959#1" to="617887683#2"/>
    <trip id="veh8" type="veh_passenger" depart="34.32" departLane="best" departSpeed="max" from="683249546#0" to="617887683#2"/>
    <trip id="veh9" type="veh_passenger" depart="38.61" departLane="best" from="683249540#0" to="617887683#2"/>
    <trip id="veh10" type="veh_passenger" depart="42.90" departLane="best" departSpeed="max" from="25154467" to="617887683#2"/>
    <trip id="veh11" type="veh_passenger" depart="47.19" departLane="best" departSpeed="max" from="903585157" to="617887683#2"/>
    <trip id="veh12" type="veh_passenger" depart="51.48" departLane="best" from="24700895#1" to="617887683#2"/>
    <trip id="veh13" type="veh_passenger" depart="55.77" departLane="best" from="688967694#5" to="617887683#2"/>
    <trip id="veh14" type="veh_passenger" depart="60.06" departLane="best" from="683249542#0" to="617887683#2"/>
    <trip id="veh15" type="veh_passenger" depart="64.35" departLane="best" from="569404635#2" to="617887683#2"/>
    <trip id="veh16" type="veh_passenger" depart="68.64" departLane="best" from="25154589#3" to="617887683#2"/>
    <trip id="veh17" type="veh_passenger" depart="72.93" departLane="best" departSpeed="max" from="683249547#0" to="617887683#2"/>
    <trip id="veh18" type="veh_passenger" depart="77.22" departLane="best" departSpeed="max" from="833637499#0" to="617887683#2"/>
    <trip id="veh19" type="veh_passenger" depart="81.51" departLane="best" from="617638518#10" to="617887683#2"/>
    <trip id="veh20" type="veh_passenger" depart="85.80" departLane="best" departSpeed="max" from="157371388#0" to="617887683#2"/>
    <trip id="veh22" type="veh_passenger" depart="94.38" departLane="best" departSpeed="max" from="617633724#0" to="617887683#2"/>
    <trip id="veh23" type="veh_passenger" depart="98.67" departLane="best" from="25154589#1" to="617887683#2"/>
    <trip id="veh24" type="veh_passenger" depart="102.96" departLane="best" departSpeed="max" from="24736772#0" to="617887683#2"/>
    <trip id="veh25" type="veh_passenger" depart="107.25" departLane="best" from="24700910#4" to="617887683#2"/>
    <trip id="veh26" type="veh_passenger" depart="111.54" departLane="best" from="24700910#4" to="617887683#2"/>
    <trip id="veh27" type="veh_passenger" depart="115.83" departLane="best" from="617628987#1" to="617887683#2"/>
    <trip id="veh28" type="veh_passenger" depart="120.12" departLane="best" departSpeed="max" from="24736389#0" to="617887683#2"/>
    <trip id="veh29" type="veh_passenger" depart="124.41" departLane="best" from="24847390#2" to="617887683#2"/>
    <trip id="veh30" type="veh_passenger" depart="128.70" departLane="best" departSpeed="max" from="24734959#0" to="617887683#2"/>
    <trip id="veh31" type="veh_passenger" depart="132.99" departLane="best" from="854016739#1" to="617887683#2"/>
    <trip id="veh33" type="veh_passenger" depart="141.57" departLane="best" from="903579910#1" to="617887683#2"/>
    <trip id="veh34" type="veh_passenger" depart="145.86" departLane="best" departSpeed="max" from="24736772#0" to="617887683#2"/>
    <trip id="veh35" type="veh_passenger" depart="150.15" departLane="best" from="617628987#10" to="617887683#2"/>
    <trip id="veh37" type="veh_passenger" depart="158.73" departLane="best" from="531853565#2" to="617887683#2"/>
    <trip id="veh38" type="veh_passenger" depart="163.02" departLane="best" from="905632797#0" to="617887683#2"/>
    <trip id="veh39" type="veh_passenger" depart="167.31" departLane="best" from="24700895#1" to="617887683#2"/>
    <trip id="veh40" type="veh_passenger" depart="171.60" departLane="best" departSpeed="max" from="24700910#0" to="617887683#2"/>
    <trip id="veh42" type="veh_passenger" depart="180.18" departLane="best" departSpeed="max" from="-617638500" to="617887683#2"/>
    <trip id="veh43" type="veh_passenger" depart="184.47" departLane="best" from="905632797#0" to="617887683#2"/>
    <trip id="veh44" type="veh_passenger" depart="188.76" departLane="best" from="904268993#1" to="617887683#2"/>
    <trip id="veh45" type="veh_passenger" depart="193.05" departLane="best" departSpeed="max" from="-24703065#4" to="617887683#2"/>
    <trip id="veh46" type="veh_passenger" depart="197.34" departLane="best" from="617638498#0" to="617887683#2"/>
    <trip id="veh47" type="veh_passenger" depart="201.63" departLane="best" departSpeed="max" from="24736772#0" to="617887683#2"/>
    <trip id="veh48" type="veh_passenger" depart="205.92" departLane="best" departSpeed="max" from="24700910#0" to="617887683#2"/>
    <trip id="veh49" type="veh_passenger" depart="210.21" departLane="best" departSpeed="max" from="569404605#0" to="617887683#2"/>
    <trip id="veh50" type="veh_passenger" depart="214.50" departLane="best" from="854016739#1" to="617887683#2"/>
    <trip id="veh51" type="veh_passenger" depart="218.79" departLane="best" departSpeed="max" from="569404616#0" to="617887683#2"/>
    <trip id="veh52" type="veh_passenger" depart="223.08" departLane="best" from="24738692#0" to="617887683#2"/>
    <trip id="veh53" type="veh_passenger" depart="227.37" departLane="best" from="617628987#8" to="617887683#2"/>
    <trip id="veh54" type="veh_passenger" depart="231.66" departLane="best" from="617887683#1" to="617887683#2"/>
    <trip id="veh55" type="veh_passenger" depart="235.95" departLane="best" from="-24703062#0" to="617887683#2"/>
    <trip id="veh56" type="veh_passenger" depart="240.24" departLane="best" from="-24703691#1" to="617887683#2"/>
    <trip id="veh57" type="veh_passenger" depart="244.53" departLane="best" from="865459158#0" to="617887683#2"/>
    <trip id="veh58" type="veh_passenger" depart="248.82" departLane="best" from="24847390#0" to="617887683#2"/>
    <trip id="veh59" type="veh_passenger" depart="253.11" departLane="best" from="854016739#1" to="617887683#2"/>
    <trip id="veh61" type="veh_passenger" depart="261.69" departLane="best" from="-865478984" to="617887683#2"/>
    <trip id="veh62" type="veh_passenger" depart="265.98" departLane="best" from="617887683#1" to="617887683#2"/>
    <trip id="veh63" type="veh_passenger" depart="270.27" departLane="best" from="569404611#3" to="617887683#2"/>
    <trip id="veh64" type="veh_passenger" depart="274.56" departLane="best" departSpeed="max" from="24736772#0" to="617887683#2"/>
    <trip id="veh65" type="veh_passenger" depart="278.85" departLane="best" from="569404635#3" to="617887683#2"/>
    <trip id="veh67" type="veh_passenger" depart="287.43" departLane="best" from="905632797#0" to="617887683#2"/>
    <trip id="veh68" type="veh_passenger" depart="291.72" departLane="best" from="569404596#1" to="617887683#2"/>
    <trip id="veh69" type="veh_passenger" depart="296.01" departLane="best" departSpeed="max" from="24700910#0" to="617887683#2"/>
    <trip id="veh70" type="veh_passenger" depart="300.30" departLane="best" departSpeed="max" from="25154467" to="617887683#2"/>
    <trip id="veh71" type="veh_passenger" depart="304.59" departLane="best" departSpeed="max" from="24736389#0" to="617887683#2"/>
    <trip id="veh72" type="veh_passenger" depart="308.88" departLane="best" departSpeed="max" from="24736389#0" to="617887683#2"/>
    <trip id="veh73" type="veh_passenger" depart="313.17" departLane="best" departSpeed="max" from="833637499#0" to="617887683#2"/>
    <trip id="veh74" type="veh_passenger" depart="317.46" departLane="best" from="24736389#1" to="617887683#2"/>
    <trip id="veh75" type="veh_passenger" depart="321.75" departLane="best" departSpeed="max" from="24734959#0" to="617887683#2"/>
    <trip id="veh76" type="veh_passenger" depart="326.04" departLane="best" from="903582459" to="617887683#2"/>
    <trip id="veh77" type="veh_passenger" depart="330.33" departLane="best" departSpeed="max" from="569404611#0" to="617887683#2"/>
    <trip id="veh78" type="veh_passenger" depart="334.62" departLane="best" from="683249542#0" to="617887683#2"/>
    <trip id="veh80" type="veh_passenger" depart="343.20" departLane="best" departSpeed="max" from="569404596#0" to="617887683#2"/>
    <trip id="veh81" type="veh_passenger" depart="347.49" departLane="best" from="617638518#8" to="617887683#2"/>
    <trip id="veh82" type="veh_passenger" depart="351.78" departLane="best" from="904271298#1" to="617887683#2"/>
    <trip id="veh83" type="veh_passenger" depart="356.07" departLane="best" departSpeed="max" from="569404312#0" to="617887683#2"/>
    <trip id="veh84" type="veh_passenger" depart="360.36" departLane="best" departSpeed="max" from="833637499#0" to="617887683#2"/>
    <trip id="veh85" type="veh_passenger" depart="364.65" departLane="best" from="24703691#2" to="617887683#2"/>
    <trip id="veh86" type="veh_passenger" depart="368.94" departLane="best" departSpeed="max" from="569404596#0" to="617887683#2"/>
    <trip id="veh87" type="veh_passenger" depart="373.23" departLane="best" departSpeed="max" from="24736613#0" to="617887683#2"/>
    <trip id="veh88" type="veh_passenger" depart="377.52" departLane="best" departSpeed="max" from="569404605#0" to="617887683#2"/>
    <trip id="veh89" type="veh_passenger" depart="381.81" departLane="best" from="617628987#0" to="617887683#2"/>
    <trip id="veh90" type="veh_passenger" depart="386.10" departLane="best" from="976442408#0" to="617887683#2"/>
    <trip id="veh91" type="veh_passenger" depart="390.39" departLane="best" from="904268993#1" to="617887683#2"/>
    <trip id="veh92" type="veh_passenger" depart="394.68" departLane="best" from="688967694#5" to="617887683#2"/>
    <trip id="veh93" type="veh_passenger" depart="398.97" departLane="best" departSpeed="max" from="569404616#0" to="617887683#2"/>
    <trip id="veh94" type="veh_passenger" depart="403.26" departLane="best" from="531853565#2" to="617887683#2"/>
    <trip id="veh95" type="veh_passenger" depart="407.55" departLane="best" from="25154589#3" to="617887683#2"/>
    <trip id="veh96" type="veh_passenger" depart="411.84" departLane="best" departSpeed="max" from="24736772#0" to="617887683#2"/>
    <trip id="veh97" type="veh_passenger" depart="416.13" departLane="best" departSpeed="max" from="569404605#0" to="617887683#2"/>
    <trip id="veh98" type="veh_passenger" depart="420.42" departLane="best" departSpeed="max" from="903585157" to="617887683#2"/>
    <trip id="veh99" type="veh_passenger" depart="424.71" departLane="best" from="617628987#1" to="617887683#2"/>
    <trip id="veh100" type="veh_passenger" depart="429.00" departLane="best" from="24700910#3" to="617887683#2"/>
</routes>
