<?xml version="1.0" encoding="UTF-8"?>

<!-- generated on 2022-03-05 10:38:36 by Eclipse SUMO duarouter Version 1.12.0
<configuration xmlns:xsi="http://www.w3.org/2001/XMLSchema-instance" xsi:noNamespaceSchemaLocation="http://sumo.dlr.de/xsd/duarouterConfiguration.xsd">

    <input>
        <net-file value="/home/osboxes/Documents/mhp_hackathon/sumo/tools/2022-03-05-10-38-07/osm.net.xml"/>
        <route-files value="/home/osboxes/Documents/mhp_hackathon/sumo/tools/2022-03-05-10-38-07/osm.passenger.trips.xml"/>
    </input>

    <output>
        <output-file value="/home/osboxes/Documents/mhp_hackathon/sumo/tools/2022-03-05-10-38-07/osm.passenger.trips.xml.tmp"/>
        <write-trips value="true"/>
    </output>

    <time>
        <begin value="0"/>
        <end value="3600"/>
    </time>

    <report>
        <no-warnings value="true"/>
        <ignore-errors value="true"/>
        <no-step-log value="true"/>
    </report>

</configuration>
-->

<routes xmlns:xsi="http://www.w3.org/2001/XMLSchema-instance" xsi:noNamespaceSchemaLocation="http://sumo.dlr.de/xsd/routes_file.xsd">
    <vType id="veh_passenger" vClass="passenger"/>
    <trip id="veh0" type="veh_passenger" depart="0.00" departLane="best" from="24736783#1" to="24704450#3"/>
    <trip id="veh1" type="veh_passenger" depart="4.29" departLane="best" from="617638520#0" to="617638495#7"/>
    <trip id="veh2" type="veh_passenger" depart="8.58" departLane="best" departSpeed="max" from="866376714" to="24700895#3"/>
    <trip id="veh3" type="veh_passenger" depart="12.87" departLane="best" departSpeed="max" from="569404596#0" to="-25154467"/>
    <trip id="veh4" type="veh_passenger" depart="17.16" departLane="best" departSpeed="max" from="24734959#0" to="569404616#2"/>
    <trip id="veh5" type="veh_passenger" depart="21.45" departLane="best" departSpeed="max" from="-24703691#2" to="24703972#0"/>
    <trip id="veh6" type="veh_passenger" depart="25.74" departLane="best" from="617638495#0" to="617525562#1"/>
    <trip id="veh7" type="veh_passenger" depart="30.03" departLane="best" from="24734959#1" to="617628987#4"/>
    <trip id="veh8" type="veh_passenger" depart="34.32" departLane="best" departSpeed="max" from="683249546#0" to="-24703065#2"/>
    <trip id="veh9" type="veh_passenger" depart="38.61" departLane="best" from="683249540#0" to="617638498#1"/>
    <trip id="veh10" type="veh_passenger" depart="42.90" departLane="best" departSpeed="max" from="25154467" to="24702427#3"/>
    <trip id="veh11" type="veh_passenger" depart="47.19" departLane="best" departSpeed="max" from="903585157" to="24738368#0"/>
    <trip id="veh12" type="veh_passenger" depart="51.48" departLane="best" from="24700895#1" to="24700895#3"/>
    <trip id="veh13" type="veh_passenger" depart="55.77" departLane="best" from="688967694#5" to="617628987#6"/>
    <trip id="veh14" type="veh_passenger" depart="60.06" departLane="best" from="683249542#0" to="617638500"/>
    <trip id="veh15" type="veh_passenger" depart="64.35" departLane="best" from="569404635#2" to="904270696"/>
    <trip id="veh16" type="veh_passenger" depart="68.64" departLane="best" from="25154589#3" to="617628987#0"/>
    <trip id="veh17" type="veh_passenger" depart="72.93" departLane="best" departSpeed="max" from="683249547#0" to="617628987#8"/>
    <trip id="veh18" type="veh_passenger" depart="77.22" departLane="best" departSpeed="max" from="833637499#0" to="617628987#2"/>
    <trip id="veh19" type="veh_passenger" depart="81.51" departLane="best" from="617638518#10" to="-654603191"/>
    <trip id="veh20" type="veh_passenger" depart="85.80" departLane="best" departSpeed="max" from="157371388#0" to="24704450#3"/>
    <trip id="veh22" type="veh_passenger" depart="94.38" departLane="best" departSpeed="max" from="617633724#0" to="24738592#2"/>
    <trip id="veh23" type="veh_passenger" depart="98.67" departLane="best" from="25154589#1" to="24703972#1"/>
    <trip id="veh24" type="veh_passenger" depart="102.96" departLane="best" departSpeed="max" from="24736772#0" to="903579910#1"/>
    <trip id="veh25" type="veh_passenger" depart="107.25" departLane="best" from="24700910#4" to="617638500"/>
    <trip id="veh26" type="veh_passenger" depart="111.54" departLane="best" from="24700910#4" to="24738626"/>
    <trip id="veh27" type="veh_passenger" depart="115.83" departLane="best" from="617628987#1" to="617638498#0"/>
    <trip id="veh28" type="veh_passenger" depart="120.12" departLane="best" departSpeed="max" from="24736389#0" to="-25154467"/>
    <trip id="veh29" type="veh_passenger" depart="124.41" departLane="best" from="24847390#2" to="24736305#1"/>
    <trip id="veh30" type="veh_passenger" depart="128.70" departLane="best" departSpeed="max" from="24734959#0" to="903579910#4"/>
    <trip id="veh31" type="veh_passenger" depart="132.99" departLane="best" from="854016739#1" to="24736783#3"/>
    <trip id="veh33" type="veh_passenger" depart="141.57" departLane="best" from="903579910#1" to="531853565#2"/>
    <trip id="veh34" type="veh_passenger" depart="145.86" departLane="best" departSpeed="max" from="24736772#0" to="24734945#0"/>
    <trip id="veh35" type="veh_passenger" depart="150.15" departLane="best" from="617628987#10" to="24736305#1"/>
    <trip id="veh37" type="veh_passenger" depart="158.73" departLane="best" from="531853565#2" to="24704315#1"/>
    <trip id="veh38" type="veh_passenger" depart="163.02" departLane="best" from="905632797#0" to="569404620#2"/>
    <trip id="veh39" type="veh_passenger" depart="167.31" departLane="best" from="24700895#1" to="-654603191"/>
    <trip id="veh40" type="veh_passenger" depart="171.60" departLane="best" departSpeed="max" from="24700910#0" to="617633711"/>
    <trip id="veh42" type="veh_passenger" depart="180.18" departLane="best" departSpeed="max" from="-617638500" to="24738692#1"/>
    <trip id="veh43" type="veh_passenger" depart="184.47" departLane="best" from="905632797#0" to="569404635#2"/>
    <trip id="veh44" type="veh_passenger" depart="188.76" departLane="best" from="904268993#1" to="683249545#2"/>
    <trip id="veh45" type="veh_passenger" depart="193.05" departLane="best" departSpeed="max" from="-24703065#4" to="617638499#6"/>
    <trip id="veh46" type="veh_passenger" depart="197.34" departLane="best" from="617638498#0" to="617525562#1"/>
    <trip id="veh47" type="veh_passenger" depart="201.63" departLane="best" departSpeed="max" from="24736772#0" to="617633724#1"/>
    <trip id="veh48" type="veh_passenger" depart="205.92" departLane="best" departSpeed="max" from="24700910#0" to="456118094#0"/>
    <trip id="veh49" type="veh_passenger" depart="210.21" departLane="best" departSpeed="max" from="569404605#0" to="903582458"/>
    <trip id="veh50" type="veh_passenger" depart="214.50" departLane="best" from="854016739#1" to="24736305#1"/>
    <trip id="veh51" type="veh_passenger" depart="218.79" departLane="best" departSpeed="max" from="569404616#0" to="24703691#2"/>
    <trip id="veh52" type="veh_passenger" depart="223.08" departLane="best" from="24738692#0" to="617633711"/>
    <trip id="veh53" type="veh_passenger" depart="227.37" departLane="best" from="617628987#8" to="24702427#3"/>
    <trip id="veh54" type="veh_passenger" depart="231.66" departLane="best" from="617887683#1" to="617525562#1"/>
    <trip id="veh55" type="veh_passenger" depart="235.95" departLane="best" from="-24703062#0" to="24736783#3"/>
    <trip id="veh56" type="veh_passenger" depart="240.24" departLane="best" from="-24703691#1" to="903579909"/>
    <trip id="veh57" type="veh_passenger" depart="244.53" departLane="best" from="865459158#0" to="617887688#1"/>
    <trip id="veh58" type="veh_passenger" depart="248.82" departLane="best" from="24847390#0" to="-654840379"/>
    <trip id="veh59" type="veh_passenger" depart="253.11" departLane="best" from="854016739#1" to="903582457"/>
    <trip id="veh61" type="veh_passenger" depart="261.69" departLane="best" from="-865478984" to="617638518#6"/>
    <trip id="veh62" type="veh_passenger" depart="265.98" departLane="best" from="617887683#1" to="24700910#2"/>
    <trip id="veh63" type="veh_passenger" depart="270.27" departLane="best" from="569404611#3" to="617525562#1"/>
    <trip id="veh64" type="veh_passenger" depart="274.56" departLane="best" departSpeed="max" from="24736772#0" to="688967694#1"/>
    <trip id="veh65" type="veh_passenger" depart="278.85" departLane="best" from="569404635#3" to="617638500"/>
    <trip id="veh67" type="veh_passenger" depart="287.43" departLane="best" from="905632797#0" to="617633726#0"/>
    <trip id="veh68" type="veh_passenger" depart="291.72" departLane="best" from="569404596#1" to="569404620#3"/>
    <trip id="veh69" type="veh_passenger" depart="296.01" departLane="best" departSpeed="max" from="24700910#0" to="24704315#1"/>
    <trip id="veh70" type="veh_passenger" depart="300.30" departLane="best" departSpeed="max" from="25154467" to="617628987#4"/>
    <trip id="veh71" type="veh_passenger" depart="304.59" departLane="best" departSpeed="max" from="24736389#0" to="24704315#1"/>
    <trip id="veh72" type="veh_passenger" depart="308.88" departLane="best" departSpeed="max" from="24736389#0" to="865473177#1"/>
    <trip id="veh73" type="veh_passenger" depart="313.17" departLane="best" departSpeed="max" from="833637499#0" to="24700895#1"/>
    <trip id="veh74" type="veh_passenger" depart="317.46" departLane="best" from="24736389#1" to="617638495#5"/>
    <trip id="veh75" type="veh_passenger" depart="321.75" departLane="best" departSpeed="max" from="24734959#0" to="24700910#3"/>
    <trip id="veh76" type="veh_passenger" depart="326.04" departLane="best" from="903582459" to="617628987#2"/>
    <trip id="veh77" type="veh_passenger" depart="330.33" departLane="best" departSpeed="max" from="569404611#0" to="617638520#2"/>
    <trip id="veh78" type="veh_passenger" depart="334.62" departLane="best" from="683249542#0" to="24703954#2"/>
    <trip id="veh80" type="veh_passenger" depart="343.20" departLane="best" departSpeed="max" from="569404596#0" to="531853565#3"/>
    <trip id="veh81" type="veh_passenger" depart="347.49" departLane="best" from="617638518#8" to="617638495#6"/>
    <trip id="veh82" type="veh_passenger" depart="351.78" departLane="best" from="904271298#1" to="24700895#3"/>
    <trip id="veh83" type="veh_passenger" depart="356.07" departLane="best" departSpeed="max" from="569404312#0" to="24738369#1"/>
    <trip id="veh84" type="veh_passenger" depart="360.36" departLane="best" departSpeed="max" from="833637499#0" to="24734945#1"/>
    <trip id="veh85" type="veh_passenger" depart="364.65" departLane="best" from="24703691#2" to="456118094#2"/>
    <trip id="veh86" type="veh_passenger" depart="368.94" departLane="best" departSpeed="max" from="569404596#0" to="24736421#2"/>
    <trip id="veh87" type="veh_passenger" depart="373.23" departLane="best" departSpeed="max" from="24736613#0" to="903579908#1"/>
    <trip id="veh88" type="veh_passenger" depart="377.52" departLane="best" departSpeed="max" from="569404605#0" to="683249546#1"/>
    <trip id="veh89" type="veh_passenger" depart="381.81" departLane="best" from="617628987#0" to="-654603191"/>
    <trip id="veh90" type="veh_passenger" depart="386.10" departLane="best" from="976442408#0" to="683249539#0"/>
    <trip id="veh91" type="veh_passenger" depart="390.39" departLane="best" from="904268993#1" to="903579909"/>
    <trip id="veh92" type="veh_passenger" depart="394.68" departLane="best" from="688967694#5" to="24703062#3"/>
    <trip id="veh93" type="veh_passenger" depart="398.97" departLane="best" departSpeed="max" from="569404616#0" to="24704315#1"/>
    <trip id="veh94" type="veh_passenger" depart="403.26" departLane="best" from="531853565#2" to="-654840379"/>
    <trip id="veh95" type="veh_passenger" depart="407.55" departLane="best" from="25154589#3" to="905093794"/>
    <trip id="veh96" type="veh_passenger" depart="411.84" departLane="best" departSpeed="max" from="24736772#0" to="617638520#2"/>
    <trip id="veh97" type="veh_passenger" depart="416.13" departLane="best" departSpeed="max" from="569404605#0" to="342785686#2"/>
    <trip id="veh98" type="veh_passenger" depart="420.42" departLane="best" departSpeed="max" from="903585157" to="905632797#0"/>
    <trip id="veh99" type="veh_passenger" depart="424.71" departLane="best" from="617628987#1" to="617638499#6"/>
    <trip id="veh100" type="veh_passenger" depart="429.00" departLane="best" from="24700910#3" to="24736460#2"/>
    <trip id="veh101" type="veh_passenger" depart="433.29" departLane="best" departSpeed="max" from="903585157" to="617628987#3"/>
    <trip id="veh103" type="veh_passenger" depart="441.87" departLane="best" from="-25154447#1" to="617628987#3"/>
    <trip id="veh104" type="veh_passenger" depart="446.15" departLane="best" departSpeed="max" from="569404616#0" to="683249542#1"/>
    <trip id="veh105" type="veh_passenger" depart="450.44" departLane="best" departSpeed="max" from="157371388#0" to="24703954#2"/>
    <trip id="veh106" type="veh_passenger" depart="454.73" departLane="best" from="617628987#6" to="617638495#7"/>
    <trip id="veh107" type="veh_passenger" depart="459.02" departLane="best" departSpeed="max" from="24736389#0" to="24700895#3"/>
    <trip id="veh108" type="veh_passenger" depart="463.31" departLane="best" from="865478984" to="24704450#3"/>
    <trip id="veh109" type="veh_passenger" depart="467.60" departLane="best" from="569404312#2" to="617628987#3"/>
    <trip id="veh110" type="veh_passenger" depart="471.89" departLane="best" departSpeed="max" from="569404635#0" to="903579910#0"/>
    <trip id="veh111" type="veh_passenger" depart="476.18" departLane="best" from="24734945#0" to="617638499#6"/>
    <trip id="veh112" type="veh_passenger" depart="480.47" departLane="best" from="24736389#1" to="24847390#2"/>
    <trip id="veh113" type="veh_passenger" depart="484.76" departLane="best" from="24847390#2" to="617638518#3"/>
    <trip id="veh114" type="veh_passenger" depart="489.05" departLane="best" departSpeed="max" from="157371388#0" to="531853565#2"/>
    <trip id="veh115" type="veh_passenger" depart="493.34" departLane="best" departSpeed="max" from="157371388#0" to="24703972#1"/>
    <trip id="veh116" type="veh_passenger" depart="497.63" departLane="best" departSpeed="max" from="24736772#0" to="903579910#0"/>
    <trip id="veh117" type="veh_passenger" depart="501.92" departLane="best" from="25154589#1" to="24702427#3"/>
    <trip id="veh118" type="veh_passenger" depart="506.21" departLane="best" from="617628987#8" to="905093795#1"/>
    <trip id="veh119" type="veh_passenger" depart="510.50" departLane="best" from="617638495#1" to="-24703065#3"/>
    <trip id="veh120" type="veh_passenger" depart="514.79" departLane="best" from="617638495#4" to="903579910#1"/>
    <trip id="veh121" type="veh_passenger" depart="519.08" departLane="best" departSpeed="max" from="24700910#0" to="24700895#3"/>
    <trip id="veh122" type="veh_passenger" depart="523.37" departLane="best" departSpeed="max" from="24700910#0" to="617628987#0"/>
    <trip id="veh123" type="veh_passenger" depart="527.66" departLane="best" from="24736772#2" to="617628987#6"/>
    <trip id="veh124" type="veh_passenger" depart="531.95" departLane="best" from="617638518#4" to="24703972#1"/>
    <trip id="veh125" type="veh_passenger" depart="536.24" departLane="best" departSpeed="max" from="617633724#0" to="24736305#1"/>
    <trip id="veh126" type="veh_passenger" depart="540.53" departLane="best" departSpeed="max" from="569404616#0" to="865473177#1"/>
    <trip id="veh127" type="veh_passenger" depart="544.82" departLane="best" from="688967694#4" to="24700895#3"/>
    <trip id="veh128" type="veh_passenger" depart="549.11" departLane="best" departSpeed="max" from="569404596#0" to="24736421#2"/>
    <trip id="veh129" type="veh_passenger" depart="553.40" departLane="best" from="617633724#1" to="24736305#1"/>
    <trip id="veh130" type="veh_passenger" depart="557.69" departLane="best" from="617638520#1" to="617628987#0"/>
    <trip id="veh131" type="veh_passenger" depart="561.98" departLane="best" departSpeed="max" from="569404596#0" to="-24703691#0"/>
    <trip id="veh132" type="veh_passenger" depart="566.27" departLane="best" departSpeed="max" from="157371388#0" to="833637499#1"/>
    <trip id="veh133" type="veh_passenger" depart="570.56" departLane="best" from="903579909" to="617525562#1"/>
    <trip id="veh134" type="veh_passenger" depart="574.85" departLane="best" from="688967693" to="617628987#3"/>
    <trip id="veh136" type="veh_passenger" depart="583.43" departLane="best" departSpeed="max" from="679945780#0" to="683249545#2"/>
    <trip id="veh138" type="veh_passenger" depart="592.01" departLane="best" departSpeed="max" from="24736613#0" to="24700895#3"/>
    <trip id="veh139" type="veh_passenger" depart="596.30" departLane="best" departSpeed="max" from="569404312#0" to="617628987#9"/>
    <trip id="veh140" type="veh_passenger" depart="600.59" departLane="best" from="24700910#3" to="903579910#0"/>
    <trip id="veh141" type="veh_passenger" depart="604.88" departLane="best" from="833637499#1" to="904270696"/>
    <trip id="veh142" type="veh_passenger" depart="609.17" departLane="best" departSpeed="max" from="683249546#0" to="688967694#5"/>
    <trip id="veh143" type="veh_passenger" depart="613.46" departLane="best" departSpeed="max" from="-24703691#2" to="617638518#1"/>
    <trip id="veh144" type="veh_passenger" depart="617.75" departLane="best" departSpeed="max" from="25154450#0" to="903579910#0"/>
    <trip id="veh145" type="veh_passenger" depart="622.04" departLane="best" from="683249539#0" to="683249547#1"/>
    <trip id="veh146" type="veh_passenger" depart="626.33" departLane="best" departSpeed="max" from="683249546#0" to="24736305#1"/>
    <trip id="veh148" type="veh_passenger" depart="634.91" departLane="best" from="833637499#3" to="683249545#2"/>
    <trip id="veh149" type="veh_passenger" depart="639.20" departLane="best" departSpeed="max" from="24736389#0" to="617887683#2"/>
    <trip id="veh150" type="veh_passenger" depart="643.49" departLane="best" from="569404605#2" to="24736772#1"/>
    <trip id="veh151" type="veh_passenger" depart="647.78" departLane="best" departSpeed="max" from="679945780#0" to="24704450#1"/>
    <trip id="veh152" type="veh_passenger" depart="652.07" departLane="best" departSpeed="max" from="-24703691#2" to="24703954#2"/>
    <trip id="veh153" type="veh_passenger" depart="656.36" departLane="best" departSpeed="max" from="25154450#0" to="683249547#1"/>
    <trip id="veh154" type="veh_passenger" depart="660.65" departLane="best" departSpeed="max" from="903585157" to="24736421#2"/>
    <trip id="veh155" type="veh_passenger" depart="664.94" departLane="best" from="904270696" to="617525562#0"/>
    <trip id="veh156" type="veh_passenger" depart="669.23" departLane="best" from="903582459" to="24700895#3"/>
    <trip id="veh157" type="veh_passenger" depart="673.52" departLane="best" from="904268993#1" to="24703691#2"/>
    <trip id="veh158" type="veh_passenger" depart="677.81" departLane="best" departSpeed="max" from="903585157" to="24736305#1"/>
    <trip id="veh159" type="veh_passenger" depart="682.10" departLane="best" departSpeed="max" from="24700910#0" to="456118082#2"/>
    <trip id="veh160" type="veh_passenger" depart="686.39" departLane="best" from="617638518#8" to="24736783#3"/>
    <trip id="veh161" type="veh_passenger" depart="690.68" departLane="best" departSpeed="max" from="456118082#0" to="617628987#2"/>
    <trip id="veh162" type="veh_passenger" depart="694.97" departLane="best" departSpeed="max" from="24736772#0" to="617638499#3"/>
    <trip id="veh163" type="veh_passenger" depart="699.26" departLane="best" from="-24703062#2" to="903579909"/>
    <trip id="veh164" type="veh_passenger" depart="703.55" departLane="best" from="569404635#2" to="617638499#6"/>
    <trip id="veh165" type="veh_passenger" depart="707.84" departLane="best" from="617638520#1" to="617638495#5"/>
    <trip id="veh166" type="veh_passenger" depart="712.13" departLane="best" departSpeed="max" from="25154589#0" to="24700895#1"/>
    <trip id="veh167" type="veh_passenger" depart="716.42" departLane="best" from="617638495#4" to="24736816#1"/>
    <trip id="veh168" type="veh_passenger" depart="720.71" departLane="best" from="24847390#1" to="683249542#1"/>
    <trip id="veh169" type="veh_passenger" depart="725.00" departLane="best" from="617638518#4" to="24736478"/>
    <trip id="veh170" type="veh_passenger" depart="729.29" departLane="best" from="24847390#1" to="25154589#1"/>
    <trip id="veh171" type="veh_passenger" depart="733.58" departLane="best" departSpeed="max" from="569404312#0" to="24736460#2"/>
    <trip id="veh172" type="veh_passenger" depart="737.87" departLane="best" departSpeed="max" from="24700910#0" to="342785686#2"/>
    <trip id="veh173" type="veh_passenger" depart="742.16" departLane="best" from="24738692#1" to="617525562#1"/>
    <trip id="veh174" type="veh_passenger" depart="746.45" departLane="best" from="-24703062#0" to="24736421#2"/>
    <trip id="veh175" type="veh_passenger" depart="750.74" departLane="best" departSpeed="max" from="569404596#0" to="617628987#3"/>
    <trip id="veh176" type="veh_passenger" depart="755.03" departLane="best" from="617638495#1" to="531853565#3"/>
    <trip id="veh177" type="veh_passenger" depart="759.32" departLane="best" departSpeed="max" from="569404605#0" to="24704315#1"/>
    <trip id="veh178" type="veh_passenger" depart="763.61" departLane="best" departSpeed="max" from="569404611#0" to="865473177#0"/>
    <trip id="veh179" type="veh_passenger" depart="767.90" departLane="best" departSpeed="max" from="679945780#0" to="24703065#3"/>
    <trip id="veh180" type="veh_passenger" depart="772.19" departLane="best" from="157371388#1" to="569404620#3"/>
    <trip id="veh181" type="veh_passenger" depart="776.48" departLane="best" departSpeed="max" from="617633724#0" to="24738368#0"/>
    <trip id="veh182" type="veh_passenger" depart="780.77" departLane="best" departSpeed="max" from="683249547#0" to="617638518#3"/>
    <trip id="veh183" type="veh_passenger" depart="785.06" departLane="best" from="617638495#7" to="24704315#1"/>
    <trip id="veh184" type="veh_passenger" depart="789.35" departLane="best" from="24736478" to="569404312#1"/>
    <trip id="veh185" type="veh_passenger" depart="793.64" departLane="best" from="688967694#5" to="24700895#2"/>
    <trip id="veh186" type="veh_passenger" depart="797.93" departLane="best" departSpeed="max" from="569404312#0" to="617633711"/>
    <trip id="veh187" type="veh_passenger" depart="802.22" departLane="best" from="24703954#1" to="617638498#1"/>
    <trip id="veh188" type="veh_passenger" depart="806.51" departLane="best" departSpeed="max" from="569404616#0" to="24704450#3"/>
    <trip id="veh190" type="veh_passenger" depart="815.09" departLane="best" departSpeed="max" from="24700910#0" to="342785686#2"/>
    <trip id="veh191" type="veh_passenger" depart="819.38" departLane="best" from="24703062#1" to="903582459"/>
    <trip id="veh193" type="veh_passenger" depart="827.96" departLane="best" from="569404605#1" to="617887683#1"/>
    <trip id="veh194" type="veh_passenger" depart="832.25" departLane="best" from="617638495#5" to="905093795#1"/>
    <trip id="veh195" type="veh_passenger" depart="836.54" departLane="best" from="617628987#6" to="903582458"/>
    <trip id="veh196" type="veh_passenger" depart="840.83" departLane="best" departSpeed="max" from="866376714" to="617628987#8"/>
    <trip id="veh197" type="veh_passenger" depart="845.12" departLane="best" from="617638518#4" to="569404616#2"/>
    <trip id="veh198" type="veh_passenger" depart="849.41" departLane="best" from="683249547#1" to="617525562#1"/>
    <trip id="veh199" type="veh_passenger" depart="853.70" departLane="best" departSpeed="max" from="866376714" to="617638518#11"/>
    <trip id="veh200" type="veh_passenger" depart="857.99" departLane="best" departSpeed="max" from="569404611#0" to="24736305#1"/>
    <trip id="veh201" type="veh_passenger" depart="862.28" departLane="best" departSpeed="max" from="24736613#0" to="617633711"/>
    <trip id="veh202" type="veh_passenger" depart="866.57" departLane="best" from="617887683#1" to="569404620#3"/>
    <trip id="veh203" type="veh_passenger" depart="870.86" departLane="best" departSpeed="max" from="617633724#0" to="24736421#1"/>
    <trip id="veh204" type="veh_passenger" depart="875.15" departLane="best" departSpeed="max" from="157371388#0" to="24736421#2"/>
    <trip id="veh205" type="veh_passenger" depart="879.44" departLane="best" from="24736772#2" to="24736783#3"/>
    <trip id="veh206" type="veh_passenger" depart="883.73" departLane="best" departSpeed="max" from="24736389#0" to="617638498#1"/>
    <trip id="veh207" type="veh_passenger" depart="888.02" departLane="best" from="617638518#11" to="24700895#1"/>
    <trip id="veh208" type="veh_passenger" depart="892.31" departLane="best" departSpeed="max" from="569404312#0" to="617525562#1"/>
    <trip id="veh209" type="veh_passenger" depart="896.60" departLane="best" from="617628987#4" to="617638498#1"/>
    <trip id="veh210" type="veh_passenger" depart="900.89" departLane="best" departSpeed="max" from="833637499#0" to="617638518#8"/>
    <trip id="veh211" type="veh_passenger" depart="905.18" departLane="best" departSpeed="max" from="25154589#0" to="617638518#4"/>
    <trip id="veh212" type="veh_passenger" depart="909.47" departLane="best" departSpeed="max" from="833637499#0" to="903582458"/>
    <trip id="veh213" type="veh_passenger" depart="913.76" departLane="best" from="569404312#2" to="617638518#2"/>
    <trip id="veh214" type="veh_passenger" depart="918.05" departLane="best" from="617628987#0" to="617628987#6"/>
    <trip id="veh215" type="veh_passenger" depart="922.34" departLane="best" from="24734959#1" to="24704315#1"/>
    <trip id="veh216" type="veh_passenger" depart="926.63" departLane="best" from="569404596#1" to="-25154467"/>
    <trip id="veh217" type="veh_passenger" depart="930.92" departLane="best" departSpeed="max" from="25154467" to="617638495#8"/>
    <trip id="veh218" type="veh_passenger" depart="935.21" departLane="best" departSpeed="max" from="569404312#0" to="24703062#1"/>
    <trip id="veh219" type="veh_passenger" depart="939.50" departLane="best" departSpeed="max" from="569404611#0" to="24700910#2"/>
    <trip id="veh220" type="veh_passenger" depart="943.79" departLane="best" from="617628987#9" to="-24738694#1"/>
    <trip id="veh222" type="veh_passenger" depart="952.37" departLane="best" departSpeed="max" from="-24703691#2" to="617633724#2"/>
    <trip id="veh223" type="veh_passenger" depart="956.66" departLane="best" departSpeed="max" from="24700910#0" to="531853565#3"/>
    <trip id="veh224" type="veh_passenger" depart="960.95" departLane="best" departSpeed="max" from="-24736816#1" to="24738626"/>
    <trip id="veh225" type="veh_passenger" depart="965.24" departLane="best" departSpeed="max" from="24734959#0" to="24736783#3"/>
    <trip id="veh226" type="veh_passenger" depart="969.53" departLane="best" from="617638520#3" to="617887688#1"/>
    <trip id="veh227" type="veh_passenger" depart="973.82" departLane="best" departSpeed="max" from="24736613#0" to="24700895#3"/>
    <trip id="veh228" type="veh_passenger" depart="978.11" departLane="best" from="-24703691#1" to="617525562#1"/>
    <trip id="veh229" type="veh_passenger" depart="982.40" departLane="best" from="976442408#0" to="24738369#3"/>
    <trip id="veh230" type="veh_passenger" depart="986.69" departLane="best" from="617638495#0" to="617638520#2"/>
    <trip id="veh231" type="veh_passenger" depart="990.98" departLane="best" from="617638495#0" to="617638518#4"/>
    <trip id="veh232" type="veh_passenger" depart="995.27" departLane="best" departSpeed="max" from="903585157" to="24703972#0"/>
    <trip id="veh233" type="veh_passenger" depart="999.56" departLane="best" from="-24703691#1" to="24702427#3"/>
    <trip id="veh234" type="veh_passenger" depart="1003.85" departLane="best" departSpeed="max" from="24700910#0" to="617638495#5"/>
    <trip id="veh235" type="veh_passenger" depart="1008.14" departLane="best" from="617628987#10" to="24704315#1"/>
    <trip id="veh237" type="veh_passenger" depart="1016.72" departLane="best" from="24700910#4" to="617628987#7"/>
    <trip id="veh238" type="veh_passenger" depart="1021.01" departLane="best" from="617638520#2" to="24700895#3"/>
    <trip id="veh239" type="veh_passenger" depart="1025.30" departLane="best" departSpeed="max" from="683249547#0" to="904268993#1"/>
    <trip id="veh240" type="veh_passenger" depart="1029.59" departLane="best" departSpeed="max" from="24700910#0" to="-24738692#1"/>
    <trip id="veh241" type="veh_passenger" depart="1033.88" departLane="best" from="24847390#1" to="617638495#8"/>
    <trip id="veh242" type="veh_passenger" depart="1038.17" departLane="best" departSpeed="max" from="903585157" to="24847390#2"/>
    <trip id="veh243" type="veh_passenger" depart="1042.46" departLane="best" from="617638518#3" to="24700895#2"/>
    <trip id="veh244" type="veh_passenger" depart="1046.75" departLane="best" from="617638499#2" to="617633711"/>
    <trip id="veh246" type="veh_passenger" depart="1055.33" departLane="best" departSpeed="max" from="833637499#0" to="617628987#6"/>
    <trip id="veh247" type="veh_passenger" depart="1059.62" departLane="best" departSpeed="max" from="24700910#0" to="904271299"/>
    <trip id="veh248" type="veh_passenger" depart="1063.91" departLane="best" departSpeed="max" from="654603191" to="24738369#3"/>
    <trip id="veh249" type="veh_passenger" depart="1068.20" departLane="best" departSpeed="max" from="569404596#0" to="24738592#2"/>
    <trip id="veh250" type="veh_passenger" depart="1072.49" departLane="best" from="688967694#5" to="617887683#2"/>
    <trip id="veh251" type="veh_passenger" depart="1076.78" departLane="best" departSpeed="max" from="24700910#0" to="903582459"/>