<?xml version="1.0" encoding="UTF-8"?>

<!-- generated on 2022-03-05 16:38:18 by Eclipse SUMO netedit Version 1.12.0
<configuration xmlns:xsi="http://www.w3.org/2001/XMLSchema-instance" xsi:noNamespaceSchemaLocation="http://sumo.dlr.de/xsd/netconvertConfiguration.xsd">

    <input>
        <sumo-net-file value="/home/osboxes/Documents/mhp_hackathon/coding/mexico_map/osm.net.xml"/>
    </input>

    <output>
        <output-file value="/home/osboxes/Documents/mhp_hackathon/coding/mexico_map/osm.net.xml"/>
        <output.street-names value="true"/>
    </output>

    <processing>
        <geometry.min-radius.fix.railways value="false"/>
        <geometry.max-grade.fix value="false"/>
        <offset.disable-normalization value="true"/>
        <lefthand value="false"/>
    </processing>

    <junctions>
        <no-turnarounds value="true"/>
        <junctions.corner-detail value="5"/>
        <junctions.limit-turn-speed value="5.5"/>
        <rectangular-lane-cut value="false"/>
    </junctions>

    <pedestrian>
        <walkingareas value="false"/>
    </pedestrian>

    <report>
        <aggregate-warnings value="5"/>
    </report>

</configuration>
-->

<net version="1.9" junctionCornerDetail="5" limitTurnSpeed="5.50" xmlns:xsi="http://www.w3.org/2001/XMLSchema-instance" xsi:noNamespaceSchemaLocation="http://sumo.dlr.de/xsd/net_file.xsd">

    <location netOffset="-482259.10,-2145138.25" convBoundary="0.00,0.00,6277.87,5345.76" origBoundary="-99.168974,19.400423,-99.109182,19.448720" projParameter="+proj=utm +zone=14 +ellps=WGS84 +datum=WGS84 +units=m +no_defs"/>

    <type id="highway.bridleway" priority="1" numLanes="1" speed="2.78" allow="pedestrian" oneway="1" width="2.00"/>
    <type id="highway.bus_guideway" priority="1" numLanes="1" speed="27.78" allow="bus" oneway="1"/>
    <type id="highway.cycleway" priority="1" numLanes="1" speed="8.33" allow="bicycle" oneway="0" width="1.00"/>
    <type id="highway.footway" priority="1" numLanes="1" speed="2.78" allow="pedestrian" oneway="1" width="2.00"/>
    <type id="highway.ford" priority="1" numLanes="1" speed="2.78" allow="army" oneway="0"/>
    <type id="highway.living_street" priority="2" numLanes="1" speed="2.78" disallow="tram rail_urban rail rail_electric rail_fast ship" oneway="0"/>
    <type id="highway.motorway" priority="14" numLanes="2" speed="39.44" allow="private emergency authority army vip passenger hov taxi bus coach delivery truck trailer motorcycle evehicle custom1 custom2" oneway="1"/>
    <type id="highway.motorway_link" priority="9" numLanes="1" speed="22.22" allow="private emergency authority army vip passenger hov taxi bus coach delivery truck trailer motorcycle evehicle custom1 custom2" oneway="1"/>
    <type id="highway.path" priority="1" numLanes="1" speed="2.78" allow="pedestrian bicycle" oneway="0" width="2.00"/>
    <type id="highway.pedestrian" priority="1" numLanes="1" speed="2.78" allow="pedestrian" oneway="1" width="2.00"/>
    <type id="highway.primary" priority="12" numLanes="2" speed="27.78" disallow="tram rail_urban rail rail_electric rail_fast ship" oneway="0"/>
    <type id="highway.primary_link" priority="7" numLanes="1" speed="22.22" disallow="tram rail_urban rail rail_electric rail_fast ship" oneway="0"/>
    <type id="highway.raceway" priority="15" numLanes="2" speed="83.33" allow="vip" oneway="0"/>
    <type id="highway.residential" priority="3" numLanes="1" speed="13.89" disallow="tram rail_urban rail rail_electric rail_fast ship" oneway="0"/>
    <type id="highway.secondary" priority="11" numLanes="1" speed="27.78" disallow="tram rail_urban rail rail_electric rail_fast ship" oneway="0"/>
    <type id="highway.secondary_link" priority="6" numLanes="1" speed="22.22" disallow="tram rail_urban rail rail_electric rail_fast ship" oneway="0"/>
    <type id="highway.service" priority="1" numLanes="1" speed="5.56" allow="pedestrian delivery bicycle" oneway="0"/>
    <type id="highway.stairs" priority="1" numLanes="1" speed="1.39" allow="pedestrian" oneway="1" width="2.00"/>
    <type id="highway.step" priority="1" numLanes="1" speed="1.39" allow="pedestrian" oneway="1" width="2.00"/>
    <type id="highway.steps" priority="1" numLanes="1" speed="1.39" allow="pedestrian" oneway="1" width="2.00"/>
    <type id="highway.tertiary" priority="10" numLanes="1" speed="22.22" disallow="tram rail_urban rail rail_electric rail_fast ship" oneway="0"/>
    <type id="highway.tertiary_link" priority="5" numLanes="1" speed="22.22" disallow="tram rail_urban rail rail_electric rail_fast ship" oneway="0"/>
    <type id="highway.track" priority="1" numLanes="1" speed="5.56" allow="pedestrian motorcycle moped bicycle" oneway="0"/>
    <type id="highway.trunk" priority="13" numLanes="2" speed="27.78" disallow="pedestrian bicycle tram rail_urban rail rail_electric rail_fast ship" oneway="0"/>
    <type id="highway.trunk_link" priority="8" numLanes="1" speed="22.22" disallow="pedestrian bicycle tram rail_urban rail rail_electric rail_fast ship" oneway="0"/>
    <type id="highway.unclassified" priority="4" numLanes="1" speed="13.89" disallow="tram rail_urban rail rail_electric rail_fast ship" oneway="0"/>
    <type id="highway.unsurfaced" priority="1" numLanes="1" speed="8.33" disallow="tram rail_urban rail rail_electric rail_fast ship" oneway="0"/>
    <type id="railway.highspeed" priority="21" numLanes="1" speed="69.44" allow="rail_fast" oneway="1"/>
    <type id="railway.light_rail" priority="19" numLanes="1" speed="27.78" allow="rail_urban" oneway="1"/>
    <type id="railway.preserved" priority="16" numLanes="1" speed="27.78" allow="rail" oneway="1"/>
    <type id="railway.rail" priority="20" numLanes="1" speed="44.44" allow="rail" oneway="1"/>
    <type id="railway.subway" priority="18" numLanes="1" speed="27.78" allow="rail_urban" oneway="1"/>
    <type id="railway.tram" priority="17" numLanes="1" speed="13.89" allow="tram" oneway="1"/>

    <edge id=":1446021078_0" function="internal">
        <lane id=":1446021078_0_0" index="0" disallow="tram rail_urban rail rail_electric rail_fast ship" speed="5.97" length="9.09" shape="2636.33,1148.63 2636.10,1151.23 2636.82,1153.03 2638.48,1154.03 2641.08,1154.23"/>
    </edge>
    <edge id=":1446021078_1" function="internal">
        <lane id=":1446021078_1_0" index="0" disallow="tram rail_urban rail rail_electric rail_fast ship" speed="13.89" length="16.38" shape="2636.33,1148.63 2635.43,1152.52 2634.32,1156.63 2632.88,1160.58 2630.96,1164.01"/>
    </edge>
    <edge id=":1446021078_2" function="internal">
        <lane id=":1446021078_2_0" index="0" disallow="tram rail_urban rail rail_electric rail_fast ship" speed="22.22" length="14.24" shape="2626.85,1155.23 2641.08,1154.23"/>
        <lane id=":1446021078_2_1" index="1" disallow="tram rail_urban rail rail_electric rail_fast ship" speed="22.22" length="14.24" shape="2627.09,1158.42 2641.28,1157.43"/>
    </edge>
    <edge id=":1446021078_4" function="internal">
        <lane id=":1446021078_4_0" index="0" disallow="tram rail_urban rail rail_electric rail_fast ship" speed="5.70" length="10.28" shape="2627.09,1158.42 2630.48,1158.53 2632.25,1159.50 2632.41,1161.32 2630.96,1164.01"/>
    </edge>
    <edge id=":268498093_0" function="internal">
        <lane id=":268498093_0_0" index="0" allow="pedestrian bus delivery bicycle" speed="3.71" length="4.64" shape="3301.25,1583.21 3302.55,1583.82 3303.06,1584.54 3302.78,1585.39 3301.72,1586.35"/>
    </edge>
    <edge id=":268499365_0" function="internal">
        <lane id=":268499365_0_0" index="0" disallow="tram rail_urban rail rail_electric rail_fast ship" speed="17.38" length="20.41" shape="2552.48,1935.39 2551.54,1929.42 2550.49,1925.28 2548.41,1921.69 2544.37,1917.33"/>
    </edge>
    <edge id=":268499365_1" function="internal">
        <lane id=":268499365_1_0" index="0" disallow="tram rail_urban rail rail_electric rail_fast ship" speed="18.05" length="20.81" shape="2552.48,1935.39 2549.37,1914.78"/>
        <lane id=":268499365_1_1" index="1" disallow="tram rail_urban rail rail_electric rail_fast ship" speed="18.05" length="20.81" shape="2555.64,1934.88 2552.54,1914.33"/>
    </edge>
    <edge id=":268499365_3" function="internal">
        <lane id=":268499365_3_0" index="0" disallow="tram rail_urban rail rail_electric rail_fast ship" speed="6.37" length="9.04" shape="2555.64,1934.88 2555.59,1932.38 2556.37,1930.52 2557.97,1929.29 2560.40,1928.69"/>
    </edge>
    <edge id=":268499365_4" function="internal">
        <lane id=":268499365_4_0" index="0" disallow="tram rail_urban rail rail_electric rail_fast ship" speed="5.92" length="11.22" shape="2541.84,1927.26 2544.65,1926.52 2545.63,1925.00 2544.80,1922.70 2542.14,1919.63"/>
    </edge>
    <edge id=":268499365_5" function="internal">
        <lane id=":268499365_5_0" index="0" disallow="tram rail_urban rail rail_electric rail_fast ship" speed="9.14" length="19.56" shape="2542.14,1930.44 2546.10,1929.13 2548.63,1926.08 2549.72,1921.30 2549.37,1914.78"/>
    </edge>
    <edge id=":268499365_6" function="internal">
        <lane id=":268499365_6_0" index="0" disallow="tram rail_urban rail rail_electric rail_fast ship" speed="13.89" length="18.70" shape="2542.14,1930.44 2547.55,1929.43 2551.12,1927.99 2554.68,1926.54 2560.09,1925.51"/>
    </edge>
    <edge id=":268508494_0" function="internal">
        <lane id=":268508494_0_0" index="0" disallow="tram rail_urban rail rail_electric rail_fast ship" speed="8.75" length="30.18" shape="3238.03,2265.53 3243.77,2271.18 3244.72,2278.15 3241.30,2284.30 3233.90,2287.47"/>
        <lane id=":268508494_0_1" index="1" disallow="tram rail_urban rail rail_electric rail_fast ship" speed="7.53" length="21.89" shape="3236.57,2268.38 3240.73,2272.47 3241.42,2277.53 3238.93,2281.99 3233.57,2284.29"/>
        <lane id=":268508494_0_2" index="2" disallow="tram rail_urban rail rail_electric rail_fast ship" speed="6.85" length="17.78" shape="3236.57,2268.38 3239.81,2271.67 3240.06,2275.71 3237.74,2279.27 3233.24,2281.10"/>
        <lane id=":268508494_0_3" index="3" disallow="tram rail_urban rail rail_electric rail_fast ship" speed="7.26" length="20.22" shape="3236.57,2268.38 3241.89,2271.84 3243.06,2274.58 3240.06,2276.61 3232.91,2277.92"/>
    </edge>
    <edge id=":268508494_4" function="internal">
        <lane id=":268508494_4_0" index="0" disallow="tram rail_urban rail rail_electric rail_fast ship" speed="3.65" length="4.67" shape="3236.57,2268.38 3237.27,2269.64 3237.26,2270.53 3236.53,2271.06 3235.10,2271.22"/>
    </edge>
    <edge id=":268511174_0" function="internal">
        <lane id=":268511174_0_0" index="0" disallow="tram rail_urban rail rail_electric rail_fast ship" speed="6.63" length="9.09" shape="2618.54,2354.65 2617.83,2352.31 2616.53,2350.72 2614.62,2349.88 2612.12,2349.80"/>
    </edge>
    <edge id=":268511174_1" function="internal">
        <lane id=":268511174_1_0" index="0" disallow="tram rail_urban rail rail_electric rail_fast ship" speed="13.89" length="14.22" shape="2618.54,2354.65 2616.44,2340.60"/>
        <lane id=":268511174_1_1" index="1" disallow="tram rail_urban rail rail_electric rail_fast ship" speed="13.89" length="14.22" shape="2621.70,2354.18 2619.60,2340.12"/>
    </edge>
    <edge id=":268511174_3" function="internal">
        <lane id=":268511174_3_0" index="0" disallow="tram rail_urban rail rail_electric rail_fast ship" speed="13.89" length="14.21" shape="2626.28,2348.01 2612.12,2349.80"/>
        <lane id=":268511174_3_1" index="1" disallow="tram rail_urban rail rail_electric rail_fast ship" speed="13.89" length="14.21" shape="2625.82,2344.85 2611.78,2346.62"/>
    </edge>
    <edge id=":268511174_5" function="internal">
        <lane id=":268511174_5_0" index="0" disallow="tram rail_urban rail rail_electric rail_fast ship" speed="6.47" length="3.94" shape="2625.82,2344.85 2623.41,2344.85 2622.00,2344.25"/>
    </edge>
    <edge id=":268511174_6" function="internal">
        <lane id=":268511174_6_0" index="0" disallow="tram rail_urban rail rail_electric rail_fast ship" speed="6.47" length="4.95" shape="2622.00,2344.25 2621.57,2344.06 2620.30,2342.49 2619.60,2340.12"/>
    </edge>
    <edge id=":268511175_0" function="internal">
        <lane id=":268511175_0_0" index="0" disallow="tram rail_urban rail rail_electric rail_fast ship" speed="7.77" length="17.19" shape="2572.74,2060.37 2571.43,2058.14 2568.52,2057.73 2564.00,2059.14 2557.87,2062.37"/>
    </edge>
    <edge id=":268511175_1" function="internal">
        <lane id=":268511175_1_0" index="0" disallow="tram rail_urban rail rail_electric rail_fast ship" speed="9.69" length="20.40" shape="2572.74,2060.37 2571.19,2057.37 2567.66,2055.48 2562.17,2054.69 2554.70,2055.02"/>
    </edge>
    <edge id=":268511175_2" function="internal">
        <lane id=":268511175_2_0" index="0" disallow="tram rail_urban rail rail_electric rail_fast ship" speed="18.05" length="17.63" shape="2572.74,2060.37 2569.93,2042.97"/>
        <lane id=":268511175_2_1" index="1" disallow="tram rail_urban rail rail_electric rail_fast ship" speed="18.05" length="17.63" shape="2575.90,2059.87 2573.09,2042.45"/>
    </edge>
    <edge id=":268511175_4" function="internal">
        <lane id=":268511175_4_0" index="0" disallow="tram rail_urban rail rail_electric rail_fast ship" speed="11.94" length="22.36" shape="2575.90,2059.87 2575.85,2054.56 2577.48,2049.69 2580.78,2045.26 2585.76,2041.25"/>
    </edge>
    <edge id=":268511175_5" function="internal">
        <lane id=":268511175_5_0" index="0" disallow="tram rail_urban rail rail_electric rail_fast ship" speed="25.00" length="33.30" shape="2589.35,2051.97 2580.83,2053.53 2571.48,2056.47 2563.20,2059.76 2557.87,2062.37"/>
    </edge>
    <edge id=":268511175_6" function="internal">
        <lane id=":268511175_6_0" index="0" disallow="tram rail_urban rail rail_electric rail_fast ship" speed="27.78" length="34.83" shape="2589.35,2051.97 2554.70,2055.02"/>
        <lane id=":268511175_6_1" index="1" disallow="tram rail_urban rail rail_electric rail_fast ship" speed="27.78" length="34.83" shape="2589.13,2048.77 2554.37,2051.84"/>
    </edge>
    <edge id=":268511175_8" function="internal">
        <lane id=":268511175_8_0" index="0" disallow="tram rail_urban rail rail_electric rail_fast ship" speed="9.45" length="9.89" shape="2589.13,2048.77 2582.56,2048.77 2579.31,2048.06"/>
    </edge>
    <edge id=":268511175_9" function="internal">
        <lane id=":268511175_9_0" index="0" disallow="tram rail_urban rail rail_electric rail_fast ship" speed="6.84" length="9.66" shape="2589.13,2048.77 2582.65,2048.74 2579.93,2047.48 2580.00,2047.31"/>
    </edge>
    <edge id=":268511175_18" function="internal">
        <lane id=":268511175_18_0" index="0" disallow="tram rail_urban rail rail_electric rail_fast ship" speed="9.45" length="8.92" shape="2579.31,2048.06 2577.70,2047.71 2574.54,2045.61 2573.09,2042.45"/>
    </edge>
    <edge id=":268511175_19" function="internal">
        <lane id=":268511175_19_0" index="0" disallow="tram rail_urban rail rail_electric rail_fast ship" speed="6.84" length="8.59" shape="2580.00,2047.31 2580.96,2044.98 2585.76,2041.25"/>
    </edge>
    <edge id=":268511175_10" function="internal">
        <lane id=":268511175_10_0" index="0" disallow="tram rail_urban rail rail_electric rail_fast ship" speed="22.22" length="34.90" shape="2587.50,2043.93 2557.87,2062.37"/>
    </edge>
    <edge id=":268511175_11" function="internal">
        <lane id=":268511175_11_0" index="0" disallow="tram rail_urban rail rail_electric rail_fast ship" speed="25.00" length="34.17" shape="2587.50,2043.93 2581.96,2046.17 2573.10,2048.52 2563.16,2050.55 2554.37,2051.84"/>
    </edge>
    <edge id=":268511175_12" function="internal">
        <lane id=":268511175_12_0" index="0" disallow="tram rail_urban rail rail_electric rail_fast ship" speed="7.89" length="18.17" shape="2587.50,2043.93 2581.80,2046.97 2577.49,2047.74 2574.59,2046.23 2573.09,2042.45"/>
    </edge>
    <edge id=":268511175_13" function="internal">
        <lane id=":268511175_13_0" index="0" disallow="tram rail_urban rail rail_electric rail_fast ship" speed="3.65" length="4.67" shape="2587.50,2043.93 2586.06,2043.92 2585.29,2043.47 2585.19,2042.58 2585.76,2041.25"/>
    </edge>
    <edge id=":268511175_14" function="internal">
        <lane id=":268511175_14_0" index="0" disallow="tram rail_urban rail rail_electric rail_fast ship" speed="5.65" length="12.25" shape="2556.23,2059.62 2559.76,2057.17 2560.68,2055.59 2559.00,2054.87 2554.70,2055.02"/>
    </edge>
    <edge id=":268511175_15" function="internal">
        <lane id=":268511175_15_0" index="0" disallow="tram rail_urban rail rail_electric rail_fast ship" speed="11.75" length="22.65" shape="2556.23,2059.62 2562.70,2055.23 2567.13,2050.99 2569.55,2046.90 2569.93,2042.97"/>
    </edge>
    <edge id=":268511175_16" function="internal">
        <lane id=":268511175_16_0" index="0" disallow="tram rail_urban rail rail_electric rail_fast ship" speed="22.22" length="34.77" shape="2556.23,2059.62 2585.76,2041.25"/>
    </edge>
    <edge id=":268511175_17" function="internal">
        <lane id=":268511175_17_0" index="0" disallow="tram rail_urban rail rail_electric rail_fast ship" speed="3.65" length="1.44" shape="2556.23,2059.62 2557.67,2059.69"/>
    </edge>
    <edge id=":268511175_20" function="internal">
        <lane id=":268511175_20_0" index="0" disallow="tram rail_urban rail rail_electric rail_fast ship" speed="3.65" length="3.23" shape="2557.67,2059.69 2558.43,2060.17 2558.49,2061.07 2557.87,2062.37"/>
    </edge>
    <edge id=":268511176_0" function="internal">
        <lane id=":268511176_0_0" index="0" disallow="tram rail_urban rail rail_electric rail_fast ship" speed="13.89" length="18.07" shape="2496.46,1557.64 2493.67,1539.77"/>
        <lane id=":268511176_0_1" index="1" disallow="tram rail_urban rail rail_electric rail_fast ship" speed="13.89" length="18.07" shape="2499.62,1557.13 2496.83,1539.29"/>
    </edge>
    <edge id=":268511176_2" function="internal">
        <lane id=":268511176_2_0" index="0" disallow="tram rail_urban rail rail_electric rail_fast ship" speed="7.19" length="11.86" shape="2499.62,1557.13 2499.38,1553.25 2500.05,1550.39 2501.64,1548.58 2504.14,1547.80"/>
        <lane id=":268511176_2_1" index="1" disallow="tram rail_urban rail rail_electric rail_fast ship" speed="6.36" length="9.04" shape="2499.62,1557.13 2499.58,1554.63 2500.37,1552.78 2501.98,1551.56 2504.42,1550.99"/>
    </edge>
    <edge id=":268511176_4" function="internal">
        <lane id=":268511176_4_0" index="0" disallow="tram rail_urban rail rail_electric rail_fast ship" speed="6.36" length="9.04" shape="2488.84,1545.90 2491.28,1545.34 2492.90,1544.13 2493.69,1542.27 2493.67,1539.77"/>
    </edge>
    <edge id=":268511176_5" function="internal">
        <lane id=":268511176_5_0" index="0" disallow="tram rail_urban rail rail_electric rail_fast ship" speed="13.89" length="15.09" shape="2488.84,1545.90 2503.86,1544.62"/>
        <lane id=":268511176_5_1" index="1" disallow="tram rail_urban rail rail_electric rail_fast ship" speed="13.89" length="15.09" shape="2489.11,1549.09 2504.14,1547.80"/>
        <lane id=":268511176_5_2" index="2" disallow="tram rail_urban rail rail_electric rail_fast ship" speed="13.89" length="15.09" shape="2489.37,1552.27 2504.42,1550.99"/>
    </edge>
    <edge id=":268511177_0" function="internal">
        <lane id=":268511177_0_0" index="0" disallow="tram rail_urban rail rail_electric rail_fast ship" speed="8.15" length="12.22" shape="2367.58,754.78 2366.67,752.21 2364.83,750.29 2362.05,749.01 2358.33,748.39"/>
        <lane id=":268511177_0_1" index="1" disallow="tram rail_urban rail rail_electric rail_fast ship" speed="9.40" length="16.56" shape="2370.74,754.30 2369.51,750.61 2367.06,747.87 2363.42,746.06 2358.56,745.19"/>
        <lane id=":268511177_0_2" index="2" disallow="tram rail_urban rail rail_electric rail_fast ship" speed="9.96" length="18.72" shape="2370.74,754.30 2369.33,749.20 2366.87,745.45 2363.36,743.05 2358.80,742.00"/>
        <lane id=":268511177_0_3" index="3" disallow="tram rail_urban rail rail_electric rail_fast ship" speed="10.54" length="21.03" shape="2370.74,754.30 2369.16,747.78 2366.68,743.03 2363.30,740.04 2359.03,738.81"/>
    </edge>
    <edge id=":268511177_4" function="internal">
        <lane id=":268511177_4_0" index="0" disallow="tram rail_urban rail rail_electric rail_fast ship" speed="13.89" length="27.45" shape="2370.74,754.30 2369.21,747.37 2367.23,741.03 2365.33,734.68 2364.03,727.72"/>
    </edge>
    <edge id=":268511177_5" function="internal">
        <lane id=":268511177_5_0" index="0" disallow="tram rail_urban rail rail_electric rail_fast ship" speed="27.78" length="16.73" shape="2375.12,749.50 2358.33,748.39"/>
        <lane id=":268511177_5_1" index="1" disallow="tram rail_urban rail rail_electric rail_fast ship" speed="27.78" length="16.73" shape="2375.32,746.31 2358.56,745.19"/>
        <lane id=":268511177_5_2" index="2" disallow="tram rail_urban rail rail_electric rail_fast ship" speed="27.78" length="16.73" shape="2375.51,743.11 2358.80,742.00"/>
        <lane id=":268511177_5_3" index="3" disallow="tram rail_urban rail rail_electric rail_fast ship" speed="27.78" length="16.73" shape="2375.70,739.92 2359.03,738.81"/>
        <lane id=":268511177_5_4" index="4" disallow="tram rail_urban rail rail_electric rail_fast ship" speed="27.78" length="16.73" shape="2375.90,736.72 2359.26,735.62"/>
        <lane id=":268511177_5_5" index="5" disallow="tram rail_urban rail rail_electric rail_fast ship" speed="27.78" length="16.73" shape="2376.09,733.53 2359.49,732.43"/>
    </edge>
    <edge id=":268511177_11" function="internal">
        <lane id=":268511177_11_0" index="0" disallow="tram rail_urban rail rail_electric rail_fast ship" speed="7.84" length="11.83" shape="2376.09,733.53 2372.44,732.96 2369.74,731.74 2368.00,729.88 2367.21,727.37"/>
    </edge>
    <edge id=":268512387_0" function="internal">
        <lane id=":268512387_0_0" index="0" disallow="tram rail_urban rail rail_electric rail_fast ship" speed="25.00" length="43.10" shape="2793.01,2050.08 2785.72,2046.46 2776.89,2042.99 2766.00,2040.67 2752.52,2040.50"/>
        <lane id=":268512387_0_1" index="1" disallow="tram rail_urban rail rail_electric rail_fast ship" speed="25.00" length="43.10" shape="2794.45,2047.23 2786.89,2043.55 2777.48,2039.96 2766.00,2037.53 2752.26,2037.31"/>
    </edge>
    <edge id=":268512387_2" function="internal">
        <lane id=":268512387_2_0" index="0" disallow="tram rail_urban rail rail_electric rail_fast ship" speed="3.65" length="4.67" shape="2794.45,2047.23 2793.74,2045.97 2793.74,2045.08 2794.46,2044.54 2795.89,2044.37"/>
    </edge>
    <edge id=":268512387_3" function="internal">
        <lane id=":268512387_3_0" index="0" disallow="tram rail_urban rail rail_electric rail_fast ship" speed="5.49" length="10.84" shape="2798.30,2036.30 2794.69,2036.97 2793.33,2038.07 2794.21,2039.58 2797.33,2041.51"/>
    </edge>
    <edge id=":268512387_4" function="internal">
        <lane id=":268512387_4_0" index="0" disallow="tram rail_urban rail rail_electric rail_fast ship" speed="27.78" length="45.90" shape="2798.30,2036.30 2752.52,2040.50"/>
        <lane id=":268512387_4_1" index="1" disallow="tram rail_urban rail rail_electric rail_fast ship" speed="27.78" length="45.90" shape="2797.99,2033.11 2752.26,2037.31"/>
        <lane id=":268512387_4_2" index="2" disallow="tram rail_urban rail rail_electric rail_fast ship" speed="27.78" length="45.90" shape="2797.67,2029.93 2751.99,2034.13"/>
        <lane id=":268512387_4_3" index="3" disallow="tram rail_urban rail rail_electric rail_fast ship" speed="27.78" length="45.90" shape="2797.36,2026.74 2751.73,2030.94"/>
    </edge>
    <edge id=":268512387_8" function="internal">
        <lane id=":268512387_8_0" index="0" disallow="tram rail_urban rail rail_electric rail_fast ship" speed="22.22" length="46.92" shape="2754.31,2022.89 2797.33,2041.51"/>
        <lane id=":268512387_8_1" index="1" disallow="tram rail_urban rail rail_electric rail_fast ship" speed="22.22" length="46.92" shape="2752.80,2025.72 2795.89,2044.37"/>
    </edge>
    <edge id=":268512387_10" function="internal">
        <lane id=":268512387_10_0" index="0" disallow="tram rail_urban rail rail_electric rail_fast ship" speed="5.49" length="4.15" shape="2752.80,2025.72 2755.86,2027.71 2756.10,2028.15"/>
    </edge>
    <edge id=":268512387_11" function="internal">
        <lane id=":268512387_11_0" index="0" disallow="tram rail_urban rail rail_electric rail_fast ship" speed="5.49" length="6.64" shape="2756.10,2028.15 2756.70,2029.24 2755.32,2030.32 2751.73,2030.94"/>
    </edge>
    <edge id=":268615848_0" function="internal">
        <lane id=":268615848_0_0" index="0" disallow="tram rail_urban rail rail_electric rail_fast ship" speed="5.54" length="11.30" shape="2939.43,1813.21 2942.46,1810.80 2943.20,1809.19 2941.62,1808.37 2937.75,1808.36"/>
        <lane id=":268615848_0_1" index="1" disallow="tram rail_urban rail rail_electric rail_fast ship" speed="6.82" length="18.12" shape="2939.43,1813.21 2944.48,1809.24 2945.84,1806.57 2943.51,1805.22 2937.50,1805.17"/>
    </edge>
    <edge id=":268615848_2" function="internal">
        <lane id=":268615848_2_0" index="0" disallow="tram rail_urban rail rail_electric rail_fast ship" speed="3.65" length="4.67" shape="2939.43,1813.21 2940.87,1813.20 2941.65,1813.64 2941.76,1814.53 2941.21,1815.86"/>
    </edge>
    <edge id=":268616415_0" function="internal">
        <lane id=":268616415_0_0" index="0" disallow="tram rail_urban rail rail_electric rail_fast ship" speed="8.05" length="12.23" shape="2809.80,780.50 2808.97,777.91 2807.17,775.97 2804.40,774.67 2800.65,774.02"/>
        <lane id=":268616415_0_1" index="1" disallow="tram rail_urban rail rail_electric rail_fast ship" speed="9.31" length="16.68" shape="2812.98,780.13 2811.85,776.39 2809.47,773.59 2805.82,771.73 2800.91,770.83"/>
        <lane id=":268616415_0_2" index="2" disallow="tram rail_urban rail rail_electric rail_fast ship" speed="9.88" length="18.87" shape="2812.98,780.13 2811.73,774.97 2809.34,771.17 2805.82,768.72 2801.16,767.63"/>
        <lane id=":268616415_0_3" index="3" disallow="tram rail_urban rail rail_electric rail_fast ship" speed="10.45" length="21.23" shape="2812.98,780.13 2811.60,773.56 2809.21,768.75 2805.82,765.72 2801.41,764.44"/>
    </edge>
    <edge id=":268616415_4" function="internal">
        <lane id=":268616415_4_0" index="0" disallow="tram rail_urban rail rail_electric rail_fast ship" speed="18.05" length="27.67" shape="2812.98,780.13 2811.65,773.14 2809.77,766.69 2807.87,760.25 2806.49,753.26"/>
    </edge>
    <edge id=":268616415_5" function="internal">
        <lane id=":268616415_5_0" index="0" disallow="tram rail_urban rail rail_electric rail_fast ship" speed="27.78" length="16.97" shape="2817.59,775.33 2800.65,774.02"/>
        <lane id=":268616415_5_1" index="1" disallow="tram rail_urban rail rail_electric rail_fast ship" speed="27.78" length="16.97" shape="2817.83,772.14 2800.91,770.83"/>
        <lane id=":268616415_5_2" index="2" disallow="tram rail_urban rail rail_electric rail_fast ship" speed="27.78" length="16.97" shape="2818.08,768.95 2801.16,767.63"/>
        <lane id=":268616415_5_3" index="3" disallow="tram rail_urban rail rail_electric rail_fast ship" speed="27.78" length="16.97" shape="2818.33,765.76 2801.41,764.44"/>
        <lane id=":268616415_5_4" index="4" disallow="tram rail_urban rail rail_electric rail_fast ship" speed="27.78" length="16.97" shape="2818.57,762.57 2801.66,761.25"/>
        <lane id=":268616415_5_5" index="5" disallow="tram rail_urban rail rail_electric rail_fast ship" speed="27.78" length="16.97" shape="2818.82,759.38 2801.91,758.06"/>
    </edge>
    <edge id=":268616415_11" function="internal">
        <lane id=":268616415_11_0" index="0" disallow="tram rail_urban rail rail_electric rail_fast ship" speed="8.08" length="12.25" shape="2818.82,759.38 2815.09,758.73 2812.32,757.43 2810.51,755.47 2809.66,752.86"/>
    </edge>
    <edge id=":268822683_0" function="internal">
        <lane id=":268822683_0_0" index="0" disallow="tram rail_urban rail rail_electric rail_fast ship" speed="6.35" length="9.04" shape="2434.52,2067.54 2432.09,2068.15 2430.50,2069.39 2429.75,2071.26 2429.83,2073.77"/>
    </edge>
    <edge id=":268822683_1" function="internal">
        <lane id=":268822683_1_0" index="0" disallow="tram rail_urban rail rail_electric rail_fast ship" speed="27.78" length="14.95" shape="2434.52,2067.54 2419.61,2068.96"/>
        <lane id=":268822683_1_1" index="1" disallow="tram rail_urban rail rail_electric rail_fast ship" speed="27.78" length="14.95" shape="2434.19,2064.36 2419.34,2065.77"/>
    </edge>
    <edge id=":268822683_3" function="internal">
        <lane id=":268822683_3_0" index="0" disallow="tram rail_urban rail rail_electric rail_fast ship" speed="13.89" length="14.95" shape="2427.21,2059.05 2429.83,2073.77"/>
        <lane id=":268822683_3_1" index="1" disallow="tram rail_urban rail rail_electric rail_fast ship" speed="13.89" length="14.95" shape="2424.06,2059.61 2426.68,2074.33"/>
    </edge>
    <edge id=":268822683_5" function="internal">
        <lane id=":268822683_5_0" index="0" disallow="tram rail_urban rail rail_electric rail_fast ship" speed="6.32" length="9.04" shape="2424.06,2059.61 2424.14,2062.12 2423.38,2063.98 2421.78,2065.20 2419.34,2065.77"/>
    </edge>
    <edge id=":268822686_0" function="internal">
        <lane id=":268822686_0_0" index="0" disallow="tram rail_urban rail rail_electric rail_fast ship" speed="9.07" length="13.43" shape="2446.79,2128.68 2444.05,2130.84 2442.28,2133.47 2441.50,2136.57 2441.69,2140.14"/>
    </edge>
    <edge id=":268822686_1" function="internal">