<?xml version="1.0" encoding="UTF-8"?>

<!-- generated on 2022-03-05 10:38:36 by Eclipse SUMO polyconvert Version 1.12.0
<configuration xmlns:xsi="http://www.w3.org/2001/XMLSchema-instance" xsi:noNamespaceSchemaLocation="http://sumo.dlr.de/xsd/polyconvertConfiguration.xsd">

    <input>
        <net-file value="osm.net.xml"/>
        <osm-files value="osm_bbox.osm.xml.gz"/>
        <osm.keep-full-type value="true"/>
        <type-file value="/usr/share/sumo/data/typemap/osmPolyconvert.typ.xml"/>
    </input>

    <output>
        <output-file value="osm.poly.xml"/>
    </output>

    <processing>
        <poi-layer-offset value="5"/>
    </processing>

    <report>
        <verbose value="true"/>
    </report>

</configuration>
-->

<additional xmlns:xsi="http://www.w3.org/2001/XMLSchema-instance" xsi:noNamespaceSchemaLocation="http://sumo.dlr.de/xsd/additional_file.xsd">
    <location netOffset="-482259.10,-2145138.25" convBoundary="0.00,0.00,6277.87,5345.77" origBoundary="-99.168974,19.400423,-99.109182,19.448720" projParameter="+proj=utm +zone=14 +ellps=WGS84 +datum=WGS84 +units=m +no_defs"/>

    <poly id="157370541" type="amenity.marketplace" color="237,199,199" fill="1" layer="-1.00" shape="2471.372938,1450.153467 2484.026430,1527.832366 2432.984485,1531.106542 2434.232522,1541.971625 2390.728206,1544.675216 2390.100439,1534.838683 2343.351487,1536.925482 2333.177031,1461.512955 2378.685400,1457.158795 2376.404623,1441.791010 2428.988873,1437.032620 2430.440897,1453.219945 2471.372938,1450.153467"/>
    <poly id="157370541#1" type="building.yes" color="255,230,230" fill="1" layer="-1.00" shape="2471.372938,1450.153467 2484.026430,1527.832366 2432.984485,1531.106542 2434.232522,1541.971625 2390.728206,1544.675216 2390.100439,1534.838683 2343.351487,1536.925482 2333.177031,1461.512955 2378.685400,1457.158795 2376.404623,1441.791010 2428.988873,1437.032620 2430.440897,1453.219945 2471.372938,1450.153467"/>
    <poly id="220348358" type="amenity.marketplace" color="237,199,199" fill="1" layer="-1.00" shape="2362.445489,1644.419855 2497.450144,1635.099284 2487.860786,1567.963031 2477.133434,1558.245664 2365.383395,1568.265854 2358.372020,1570.318896 2355.450839,1579.671571 2362.445489,1644.419855"/>
    <poly id="220348358#1" type="building.yes" color="255,230,230" fill="1" layer="-1.00" shape="2362.445489,1644.419855 2497.450144,1635.099284 2487.860786,1567.963031 2477.133434,1558.245664 2365.383395,1568.265854 2358.372020,1570.318896 2355.450839,1579.671571 2362.445489,1644.419855"/>
    <poly id="371547303" type="building.yes" color="255,230,230" fill="1" layer="-1.00" shape="2807.207580,2353.964969 2806.531530,2336.205685 2817.071424,2335.798635 2817.747463,2353.557919 2807.207580,2353.964969"/>
    <poly id="371547304" type="building.yes" color="255,230,230" fill="1" layer="-1.00" shape="2848.663659,2275.732165 2847.364392,2266.040013 2872.609994,2262.688585 2873.909247,2272.380738 2848.663659,2275.732165"/>
    <poly id="371547305" type="building.yes" color="255,230,230" fill="1" layer="-1.00" shape="2782.371867,2256.134849 2781.571292,2240.168253 2787.744037,2239.864386 2788.534098,2255.819926 2787.988215,2255.853573 2782.371867,2256.134849"/>
    <poly id="371547307" type="building.yes" color="255,230,230" fill="1" layer="-1.00" shape="2830.113882,2314.752703 2829.376332,2298.774987 2841.921277,2298.200319 2842.658816,2314.178036 2830.113882,2314.752703"/>
    <poly id="371547308" type="building.yes" color="255,230,230" fill="1" layer="-1.00" shape="2802.185296,2298.111371 2803.416561,2314.420638 2809.652133,2313.950747 2808.420883,2297.652544 2802.185296,2298.111371"/>
    <poly id="371547309" type="building.yes" color="255,230,230" fill="1" layer="-1.00" shape="2798.999719,2254.405983 2792.102744,2254.887489 2791.030238,2240.149368 2790.902804,2238.390087 2804.434319,2237.438357 2804.561751,2239.197638 2805.644735,2253.924686 2798.999719,2254.405983"/>
    <poly id="371547312" type="building.yes" color="255,230,230" fill="1" layer="-1.00" shape="2772.313319,2254.693612 2770.635600,2231.745524 2772.661642,2231.588933 2772.937838,2235.505828 2778.669565,2235.091670 2778.977419,2239.207715 2775.723143,2239.442778 2776.211630,2246.170089 2778.353151,2246.013404 2778.756717,2251.612122 2776.195292,2251.802351 2776.386403,2254.391479 2772.313319,2254.693612"/>
    <poly id="371547315" type="building.yes" color="255,230,230" fill="1" layer="-1.00" shape="2881.582398,2309.398998 2874.045222,2310.091241 2872.530576,2293.793267 2880.067768,2293.112089 2881.582398,2309.398998"/>
    <poly id="371547316" type="building.yes" color="255,230,230" fill="1" layer="-1.00" shape="2854.425724,2312.198721 2853.737884,2305.571160 2870.050795,2303.897944 2870.738630,2310.525506 2854.425724,2312.198721"/>
    <poly id="371547317" type="building.yes" color="255,230,230" fill="1" layer="-1.00" shape="2814.304572,2252.412655 2812.215966,2227.639125 2835.657057,2225.683365 2837.756120,2250.445824 2814.304572,2252.412655"/>
    <poly id="371547318" type="building.yes" color="255,230,230" fill="1" layer="-1.00" shape="2853.462207,2302.262855 2852.880231,2296.708543 2869.193141,2295.024261 2869.775121,2300.589639 2853.462207,2302.262855"/>
    <poly id="371547321" type="building.yes" color="255,230,230" fill="1" layer="-1.00" shape="2758.862773,2340.715493 2768.310875,2340.342514 2769.146771,2360.923322 2759.698689,2361.307365 2758.862773,2340.715493"/>
    <poly id="371547323" type="building.yes" color="255,230,230" fill="1" layer="-1.00" shape="2847.354406,2368.670879 2846.707574,2360.848229 2871.271786,2358.869458 2871.908119,2366.703183 2847.354406,2368.670879"/>
    <poly id="371547326" type="building.yes" color="255,230,230" fill="1" layer="-1.00" shape="2746.890494,2234.210626 2749.138497,2261.197081 2756.612764,2260.582296 2754.354274,2233.595848 2746.890494,2234.210626"/>
    <poly id="371547328" type="building.yes" color="255,230,230" fill="1" layer="-1.00" shape="2731.049565,2361.939707 2730.213751,2354.161479 2740.755277,2343.076347 2756.470213,2341.967856 2757.198886,2359.826683 2731.049565,2361.939707"/>
    <poly id="371547329" type="building.yes" color="255,230,230" fill="1" layer="-1.00" shape="2848.203225,2264.788941 2846.965716,2253.602921 2871.424510,2250.916058 2939.625741,2243.424232 2940.873690,2254.610250 2884.345535,2260.819969 2885.054217,2267.270469 2875.039768,2268.374163 2874.320585,2261.923672 2848.203225,2264.788941"/>
    <poly id="371547330" type="building.yes" color="255,230,230" fill="1" layer="-1.00" shape="2723.157409,2314.376437 2735.396186,2324.402528 2755.991957,2322.249848 2753.912795,2296.292325 2722.326879,2300.324167 2723.157409,2314.376437"/>
    <poly id="371547333" type="building.yes" color="255,230,230" fill="1" layer="-1.00" shape="2803.149723,2372.679779 2802.280362,2362.378682 2811.203241,2361.641004 2811.468299,2364.794402 2819.561874,2364.123805 2820.166159,2371.260439 2803.149723,2372.679779"/>
    <poly id="371547334" type="building.yes" color="255,230,230" fill="1" layer="-1.00" shape="2712.443973,2219.632985 2713.882586,2245.325466 2744.913234,2242.555517 2741.660545,2206.717638 2721.441728,2207.840946 2712.443973,2219.632985"/>
    <poly id="371547336" type="building.yes" color="255,230,230" fill="1" layer="-1.00" shape="2731.914730,2379.787355 2737.522524,2381.896180 2740.968183,2384.604326 2743.931795,2388.364079 2746.422702,2391.781199 2750.533797,2399.379668 2803.414528,2400.951460 2802.937577,2395.463454 2793.500330,2396.234757 2790.341899,2359.976305 2731.324842,2364.739006 2731.914730,2379.787355"/>
    <poly id="371554465" type="building.yes" color="255,230,230" fill="1" layer="-1.00" shape="2334.653288,2221.201156 2334.090282,2213.455909 2420.958518,2157.635044 2437.341058,2163.696040 2443.757418,2203.160617 2434.055818,2214.200949 2374.491697,2218.068982 2373.893096,2205.477153 2429.047303,2200.827213 2423.743634,2173.644206 2349.644613,2220.900697 2334.653288,2221.201156"/>
    <poly id="371554466" type="building.yes" color="255,230,230" fill="1" layer="-1.00" shape="2546.271971,2363.864425 2531.365530,2365.094138 2533.974416,2396.406811 2548.880832,2395.177100 2546.271971,2363.864425"/>
    <poly id="371554467" type="building.yes" color="255,230,230" fill="1" layer="-1.00" shape="2662.941190,2354.250624 2650.438688,2355.312255 2651.859193,2371.787336 2664.372182,2370.725697 2662.941190,2354.250624"/>
    <poly id="371554468" type="building.yes" color="255,230,230" fill="1" layer="-1.00" shape="2650.438688,2355.312255 2624.992808,2357.491238 2626.413336,2373.966318 2651.859193,2371.787336 2650.438688,2355.312255"/>
    <poly id="371554469" type="building.yes" color="255,230,230" fill="1" layer="-1.00" shape="2633.898822,2173.135534 2633.630081,2165.611340 2648.484791,2165.089937 2648.743028,2172.614140 2633.898822,2173.135534"/>
    <poly id="371554470" type="building.yes" color="255,230,230" fill="1" layer="-1.00" shape="2623.439914,2308.251850 2620.399892,2275.921519 2644.166136,2273.710735 2647.195627,2306.052144 2623.439914,2308.251850"/>
    <poly id="371554471" type="building.yes" color="255,230,230" fill="1" layer="-1.00" shape="2620.049948,2196.373213 2619.239119,2180.871376 2628.582217,2180.376694 2629.393048,2195.889597 2620.049948,2196.373213"/>
    <poly id="371554473" type="building.yes" color="255,230,230" fill="1" layer="-1.00" shape="2401.209434,2279.436719 2446.287023,2277.085898 2447.023097,2290.916930 2401.945542,2293.267749 2401.209434,2279.436719"/>
    <poly id="371554474" type="building.yes" color="255,230,230" fill="1" layer="-1.00" shape="2531.365530,2365.094138 2510.821942,2366.793352 2513.441362,2398.106014 2533.974416,2396.406811 2531.365530,2365.094138"/>
    <poly id="371554475" type="building.yes" color="255,230,230" fill="1" layer="-1.00" shape="2669.463774,2257.268704 2670.472292,2270.690099 2644.522162,2272.614971 2643.513625,2259.193578 2669.463774,2257.268704"/>
    <poly id="371554477" type="building.yes" color="255,230,230" fill="1" layer="-1.00" shape="2626.538470,2171.913431 2626.152876,2162.751668 2617.964455,2163.090470 2618.350054,2172.252234 2626.538470,2171.913431"/>
    <poly id="371554479" type="building.yes" color="255,230,230" fill="1" layer="-1.00" shape="2404.646548,2309.133133 2405.930390,2325.121437 2453.158827,2321.374578 2451.875026,2305.386271 2404.646548,2309.133133"/>
    <poly id="371554480" type="building.yes" color="255,230,230" fill="1" layer="-1.00" shape="2634.358370,2195.431772 2633.619516,2178.104096 2649.229976,2177.438213 2649.968815,2194.765890 2634.358370,2195.431772"/>
    <poly id="371554481" type="building.yes" color="255,230,230" fill="1" layer="-1.00" shape="2680.749185,2269.586074 2670.797425,2270.313607 2670.340865,2264.150603 2680.292628,2263.423069 2680.749185,2269.586074"/>
    <poly id="371554482" type="building.yes" color="255,230,230" fill="1" layer="-1.00" shape="2626.653988,2259.915836 2625.518579,2245.443344 2645.516533,2243.899631 2646.641428,2258.372134 2626.653988,2259.915836"/>
    <poly id="371554483" type="building.yes" color="255,230,230" fill="1" layer="-1.00" shape="2612.920483,2245.265764 2612.100659,2231.567582 2630.240818,2230.490149 2631.060637,2244.199398 2612.920483,2245.265764"/>
    <poly id="371554485" type="building.yes" color="255,230,230" fill="1" layer="-1.00" shape="2504.330623,2100.976582 2520.908622,2089.764524 2538.484700,2204.331146 2519.346714,2204.856244 2504.330623,2100.976582"/>
    <poly id="371554486" type="building.yes" color="255,230,230" fill="1" layer="-1.00" shape="2534.119721,2169.622901 2547.462435,2168.826053 2552.699184,2204.053639 2539.639532,2204.352307 2534.119721,2169.622901"/>
    <poly id="371554487" type="building.yes" color="255,230,230" fill="1" layer="-1.00" shape="2614.226413,2275.329152 2613.217677,2261.697519 2642.894504,2259.526054 2643.892719,2273.157698 2614.226413,2275.329152"/>
    <poly id="371554490" type="building.yes" color="255,230,230" fill="1" layer="-1.00" shape="2636.249749,2235.165762 2635.392765,2214.662437 2642.258422,2214.380073 2643.104900,2234.883407 2636.249749,2235.165762"/>
    <poly id="371554491" type="building.yes" color="255,230,230" fill="1" layer="-1.00" shape="2624.229869,2323.908621 2635.617128,2332.485799 2655.646454,2330.908875 2654.250357,2305.935606 2623.429943,2308.882581 2624.229869,2323.908621"/>
    <poly id="371554492" type="building.yes" color="255,230,230" fill="1" layer="-1.00" shape="2546.271971,2363.864425 2612.027630,2357.645926 2619.178324,2396.999302 2548.998486,2397.766287 2548.880832,2395.177100 2546.271971,2363.864425"/>
    <poly id="371554493" type="building.yes" color="255,230,230" fill="1" layer="-1.00" shape="2603.213721,2187.501840 2601.238034,2172.565310 2617.730338,2171.876531 2619.567100,2196.462139 2613.730039,2196.467019 2603.213721,2187.501840"/>
    <poly id="371554494" type="building.yes" color="255,230,230" fill="1" layer="-1.00" shape="2656.381311,2330.886131 2655.205716,2305.956940 2686.016349,2303.862057 2687.019815,2323.845194 2681.597063,2329.659002 2656.381311,2330.886131"/>
    <poly id="371554495" type="building.yes" color="255,230,230" fill="1" layer="-1.00" shape="2664.372182,2370.725697 2662.941190,2354.250624 2662.779483,2349.171775 2679.250116,2347.863411 2688.623057,2358.102098 2688.989508,2369.532272 2664.372182,2370.725697"/>
    <poly id="371554496" type="building.yes" color="255,230,230" fill="1" layer="-1.00" shape="2401.575803,2278.174961 2398.398420,2232.898354 2430.206256,2230.525557 2430.799938,2237.352359 2440.817944,2240.464304 2445.750021,2275.205247 2401.575803,2278.174961"/>
    <poly id="371554497" type="building.yes" color="255,230,230" fill="1" layer="-1.00" shape="2665.874420,2271.136543 2682.586464,2269.684132 2685.405821,2301.904003 2679.716175,2302.395613 2678.518568,2288.819460 2667.517187,2289.780241 2665.874420,2271.136543"/>
    <poly id="371554498" type="building.yes" color="255,230,230" fill="1" layer="-1.00" shape="2510.821942,2366.793352 2497.889207,2368.065693 2495.039317,2374.740485 2501.607360,2407.565766 2514.098938,2406.050363 2513.441362,2398.106014 2510.821942,2366.793352"/>
    <poly id="371554499" type="building.yes" color="255,230,230" fill="1" layer="-1.00" shape="2474.080574,2207.926286 2459.740920,2196.729222 2450.724490,2148.967846 2456.799841,2132.763081 2503.102417,2101.099335 2518.066089,2205.056497 2474.080574,2207.926286"/>
    <poly id="371554500" type="building.yes" color="255,230,230" fill="1" layer="-1.00" shape="2628.783331,2395.984331 2626.803369,2375.880293 2648.207911,2374.302210 2648.801018,2380.542558 2652.821830,2380.539204 2652.939346,2395.565815 2628.783331,2395.984331"/>
    <poly id="371554501" type="building.yes" color="255,230,230" fill="1" layer="-1.00" shape="2612.785368,2171.570836 2612.667092,2168.229208 2599.334596,2168.694040 2599.194626,2164.522532 2617.240746,2163.898844 2617.509476,2171.400907 2612.785368,2171.570836"/>
    <poly id="371554502" type="building.yes" color="255,230,230" fill="1" layer="-1.00" shape="2650.262992,2220.204818 2650.079287,2213.930934 2665.941583,2213.154202 2680.530734,2221.562760 2680.397130,2225.015251 2673.594807,2225.706966 2664.697809,2219.783366 2650.262992,2220.204818"/>
    <poly id="371554503" type="building.yes" color="255,230,230" fill="1" layer="-1.00" shape="2556.814418,2203.928466 2556.015324,2189.964701 2567.289772,2189.070015 2565.168852,2163.732209 2579.918367,2162.956335 2583.701856,2192.895924 2574.598448,2203.791830 2556.814418,2203.928466"/>
    <poly id="371554504" type="building.yes" color="255,230,230" fill="1" layer="-1.00" shape="2417.563149,2350.738869 2416.823034,2344.553980 2443.435260,2343.613034 2448.458541,2337.257291 2446.755762,2322.398001 2453.589900,2322.137721 2455.148101,2339.840922 2447.061966,2349.308609 2417.563149,2350.738869"/>
    <poly id="371554505" type="building.yes" color="255,230,230" fill="1" layer="-1.00" shape="2664.580483,2192.374663 2650.828979,2181.342938 2664.211205,2164.977236 2668.445250,2168.835505 2663.662789,2174.571326 2669.356614,2179.048037 2672.135969,2175.803582 2672.698297,2182.907050 2664.580483,2192.374663"/>
    <poly id="371554506" type="building.yes" color="255,230,230" fill="1" layer="-1.00" shape="2412.665250,2381.150529 2412.102769,2373.980676 2455.835502,2370.624072 2466.812195,2377.796196 2467.014427,2381.071361 2462.574098,2381.561985 2454.033812,2375.361553 2448.480550,2375.709272 2448.483000,2378.608385 2412.665250,2381.150529"/>
    <poly id="374568868" type="building.yes" color="255,230,230" fill="1" layer="-1.00" shape="2529.881750,1411.807146 2529.218931,1397.655168 2552.766791,1396.573121 2553.419093,1410.725109 2529.881750,1411.807146"/>
    <poly id="374568894" type="building.yes" color="255,230,230" fill="1" layer="-1.00" shape="2529.005012,1392.963655 2528.342182,1378.800612 2552.278504,1377.696107 2552.941305,1391.848086 2529.005012,1392.963655"/>
    <poly id="374568910" type="building.yes" color="255,230,230" fill="1" layer="-1.00" shape="2526.880125,1375.559704 2526.111999,1361.031595 2550.562636,1359.749611 2551.063918,1369.088314 2551.330743,1374.277721 2526.880125,1375.559704"/>
    <poly id="374569192" type="building.yes" color="255,230,230" fill="1" layer="-1.00" shape="2511.069906,1414.135618 2510.517042,1405.903490 2514.170418,1405.668044 2513.989686,1402.990391 2510.525287,1403.225677 2509.940572,1394.573095 2514.097855,1394.292964 2513.938391,1391.936186 2509.256196,1392.249955 2508.692720,1383.885053 2512.996979,1383.593732 2512.858773,1381.546766 2508.397041,1381.849284 2507.801807,1373.174580 2522.047854,1372.199912 2522.600574,1380.266060 2517.057523,1380.635878 2517.312668,1384.408935 2521.564433,1384.117661 2522.200138,1390.988685 2518.819773,1391.279226 2516.278948,1391.137514 2516.566120,1395.541267 2522.623681,1395.259540 2522.975556,1401.699256 2517.841833,1401.913815 2517.929127,1405.841927 2519.671904,1405.818331 2520.669278,1405.806427 2523.766443,1405.837018 2524.234688,1413.327842 2511.069906,1414.135618"/>
    <poly id="401645438" type="leisure.park" color="207,245,201" fill="1" layer="-2.00" shape="2614.658947,1260.583931 2622.137780,1239.808094 2631.793352,1223.168869 2615.080020,1224.234033 2612.120568,1225.708193 2610.863339,1228.862857 2614.658947,1260.583931"/>
    <poly id="401645440" type="amenity.community_centre" color="237,199,199" fill="1" layer="-1.00" shape="2613.261638,1146.380030 2609.909597,1105.253076 2614.782133,1106.477253 2617.313516,1107.836171 2625.277305,1114.524031 2630.155159,1122.121826 2631.728066,1144.959311 2613.261638,1146.380030"/>
    <poly id="401645440#1" type="building.yes" color="255,230,230" fill="1" layer="-1.00" shape="2613.261638,1146.380030 2609.909597,1105.253076 2614.782133,1106.477253 2617.313516,1107.836171 2625.277305,1114.524031 2630.155159,1122.121826 2631.728066,1144.959311 2613.261638,1146.380030"/>
    <poly id="456118100" type="leisure.park" color="207,245,201" fill="1" layer="-2.00" shape="2651.317766,1986.980186 2636.057557,1979.822593 2631.059843,1928.992692 2578.277504,1933.750674 2566.545537,1952.615813 2574.023784,2019.222764 2586.198314,2027.411964 2651.317766,1986.980186"/>
    <poly id="456118111" type="landuse.grass" color="194,194,130" fill="1" layer="-3.00" shape="2731.766372,2023.816107 2692.799501,2027.732402 2691.143750,2018.715544 2690.512920,2004.984008 2695.248224,2005.599728 2731.766372,2023.816107"/>
    <poly id="456118114" type="landuse.grass" color="194,194,130" fill="1" layer="-3.00" shape="2606.191357,1178.663450 2605.852993,1163.238690 2624.162483,1162.493079 2621.038374,1167.961952 2615.720125,1173.587573 2606.191357,1178.663450"/>
    <poly id="456118116" type="landuse.grass" color="194,194,130" fill="1" layer="-3.00" shape="2584.292668,1181.094012 2583.254064,1169.498436 2577.717738,1165.442105 2561.969736,1165.886851 2564.881701,1170.376926 2569.556756,1174.002428 2578.158882,1178.200038 2584.292668,1181.094012"/>
    <poly id="456118119" type="landuse.grass" color="194,194,130" fill="1" layer="-3.00" shape="2580.454523,1148.808651 2575.501703,1151.999609 2557.706409,1152.457141 2553.765054,1147.381470 2552.014814,1138.541756 2555.205800,1125.205380 2563.071129,1114.620347 2571.811033,1107.796790 2577.500246,1106.342467 2580.454523,1148.808651"/>
    <poly id="526130190" type="building.yes" color="255,230,230" fill="1" layer="-1.00" shape="2800.363122,1960.355056 2818.230768,1959.477216 2817.227403,1939.460884 2799.359747,1940.349790 2800.363122,1960.355056"/>
    <poly id="526130191" type="building.yes" color="255,230,230" fill="1" layer="-1.00" shape="2804.135141,1925.927739 2809.268691,1925.680064 2808.841592,1917.005208 2803.708040,1917.252882 2804.135141,1925.927739"/>
    <poly id="526130192" type="building.yes" color="255,230,230" fill="1" layer="-1.00" shape="2799.495066,1938.944383 2803.862297,1938.785863 2803.572481,1931.084641 2799.215755,1931.254218 2799.495066,1938.944383"/>
    <poly id="526130193" type="building.yes" color="255,230,230" fill="1" layer="-1.00" shape="2798.506921,1924.670940 2802.233758,1924.524013 2801.944516,1917.519906 2798.217687,1917.677898 2798.506921,1924.670940"/>
    <poly id="526130194" type="building.yes" color="255,230,230" fill="1" layer="-1.00" shape="2810.190565,1923.267064 2815.313727,1923.152184 2815.161207,1916.435663 2810.038044,1916.550543 2810.190565,1923.267064"/>
    <poly id="526130195" type="building.yes" color="255,230,230" fill="1" layer="-1.00" shape="2811.462507,1937.960757 2815.976954,1938.089816 2816.140484,1932.700871 2811.636525,1932.560738 2811.462507,1937.960757"/>
    <poly id="526130196" type="building.yes" color="255,230,230" fill="1" layer="-1.00" shape="2810.753220,1930.824212 2815.540748,1931.096895 2815.789207,1926.847608 2811.001677,1926.574925 2810.753220,1930.824212"/>
    <poly id="526130198" type="building.yes" color="255,230,230" fill="1" layer="-1.00" shape="2845.391453,1935.409900 2854.692890,1935.158807 2854.411290,1924.658053 2845.109848,1924.909145 2845.391453,1935.409900"/>
    <poly id="526130201" type="building.yes" color="255,230,230" fill="1" layer="-1.00" shape="2861.158305,1933.161732 2874.658792,1932.497781 2874.402601,1927.352619 2873.655370,1912.337597 2860.165366,1913.001541 2861.158305,1933.161732"/>
    <poly id="526130202" type="building.yes" color="255,230,230" fill="1" layer="-1.00" shape="2846.934568,1922.462208 2854.388281,1922.212637 2854.097739,1913.604059 2846.644023,1913.853630 2846.934568,1922.462208"/>
    <poly id="526130203" type="building.yes" color="255,230,230" fill="1" layer="-1.00" shape="2831.309387,1931.017502 2838.511097,1930.723871 2837.867937,1914.635429 2830.666212,1914.917995 2831.309387,1931.017502"/>
    <poly id="526130204" type="building.yes" color="255,230,230" fill="1" layer="-1.00" shape="2824.490923,1937.739770 2830.432860,1937.502500 2829.575164,1915.881577 2823.622721,1916.118855 2824.490923,1937.739770"/>
    <poly id="526130205" type="building.yes" color="255,230,230" fill="1" layer="-1.00" shape="2818.087035,1937.955292 2823.724471,1937.662945 2822.583244,1915.964798 2816.935303,1916.257154 2818.087035,1937.955292"/>
    <poly id="526130206" type="building.yes" color="255,230,230" fill="1" layer="-1.00" shape="2819.795173,1959.641905 2826.513897,1959.293341 2825.511244,1940.129037 2818.792504,1940.466537 2819.795173,1959.641905"/>
    <poly id="526130207" type="building.yes" color="255,230,230" fill="1" layer="-1.00" shape="2831.679246,1946.685687 2836.056965,1946.516100 2835.767454,1939.168968 2831.389733,1939.338555 2831.679246,1946.685687"/>
    <poly id="526130208" type="building.yes" color="255,230,230" fill="1" layer="-1.00" shape="2837.455074,1948.716947 2840.016551,1948.537792 2839.368426,1939.166002 2836.806938,1939.334091 2837.455074,1948.716947"/>
    <poly id="526130209" type="building.yes" color="255,230,230" fill="1" layer="-1.00" shape="2868.777512,1942.671641 2882.362344,1942.450238 2882.207941,1933.410001 2868.623103,1933.631403 2868.777512,1942.671641"/>
    <poly id="526130210" type="building.yes" color="255,230,230" fill="1" layer="-1.00" shape="2869.061168,1955.684221 2884.409275,1954.908105 2883.961153,1946.155806 2868.613039,1946.931923 2869.061168,1955.684221"/>
    <poly id="526130221" type="building.yes" color="255,230,230" fill="1" layer="-1.00" shape="2871.832918,1892.001042 2880.924199,1891.495634 2880.348892,1881.282820 2871.257607,1881.788228 2871.832918,1892.001042"/>
    <poly id="526130222" type="building.yes" color="255,230,230" fill="1" layer="-1.00" shape="2798.900396,1892.625456 2794.806658,1880.733621 2801.838447,1878.061073 2807.063825,1887.296299 2798.900396,1892.625456"/>
    <poly id="526130223" type="building.yes" color="255,230,230" fill="1" layer="-1.00" shape="2778.469602,1879.054130 2778.767714,1884.077538 2791.018869,1883.359231 2790.720769,1878.346888 2778.469602,1879.054130"/>
    <poly id="526130224" type="building.yes" color="255,230,230" fill="1" layer="-1.00" shape="2778.906104,1899.081993 2791.577425,1898.651037 2791.329908,1891.326002 2778.658581,1891.756958 2778.906104,1899.081993"/>
    <poly id="526130225" type="building.yes" color="255,230,230" fill="1" layer="-1.00" shape="2756.389983,1902.873900 2766.247699,1902.434191 2765.531323,1886.755229 2755.673598,1887.194938 2756.389983,1902.873900"/>
    <poly id="526130226" type="building.yes" color="255,230,230" fill="1" layer="-1.00" shape="2738.501498,1904.006321 2751.876103,1903.441970 2750.538087,1872.415929 2737.163459,1872.980280 2738.501498,1904.006321"/>
    <poly id="526130227" type="building.yes" color="255,230,230" fill="1" layer="-1.00" shape="2705.550986,1896.476060 2714.285486,1896.181106 2713.844701,1883.721924 2705.120702,1884.027935 2705.550986,1896.476060"/>
    <poly id="526130229" type="building.yes" color="255,230,230" fill="1" layer="-1.00" shape="2717.800981,1894.374540 2726.388743,1894.367411 2726.380727,1884.707396 2717.792961,1884.714524 2717.800981,1894.374540"/>
    <poly id="526130230" type="building.yes" color="255,230,230" fill="1" layer="-1.00" shape="2730.472535,1894.220174 2734.881642,1893.906687 2734.031897,1882.012176 2729.622787,1882.325662 2730.472535,1894.220174"/>
    <poly id="526130231" type="building.yes" color="255,230,230" fill="1" layer="-1.00" shape="2704.409735,1874.921770 2704.708741,1880.996381 2733.851394,1879.566891 2733.552407,1873.503345 2704.409735,1874.921770"/>
    <poly id="526130232" type="building.yes" color="255,230,230" fill="1" layer="-1.00" shape="2706.691920,1905.017537 2736.537823,1903.454683 2736.196586,1897.081343 2706.350673,1898.644198 2706.691920,1905.017537"/>
    <poly id="526130233" type="building.yes" color="255,230,230" fill="1" layer="-1.00" shape="2704.151518,1905.296281 2703.005732,1878.286793 2684.172076,1879.077028 2685.328388,1906.086506 2704.151518,1905.296281"/>
    <poly id="526130234" type="amenity.fuel" color="237,199,199" fill="1" layer="-1.00" shape="2713.134529,1951.409063 2720.007397,1947.043620 2715.686944,1940.319494 2708.824574,1944.684930 2713.134529,1951.409063"/>
    <poly id="526130234#1" type="building.roof" color="255,230,230" fill="1" layer="-1.00" shape="2713.134529,1951.409063 2720.007397,1947.043620 2715.686944,1940.319494 2708.824574,1944.684930 2713.134529,1951.409063"/>
    <poly id="526130235" type="amenity.fuel" color="237,199,199" fill="1" layer="-1.00" shape="2697.374225,1961.491600 2706.807631,1955.829381 2702.518395,1948.773273 2693.084997,1954.446559 2697.374225,1961.491600"/>
    <poly id="526130235#1" type="building.roof" color="255,230,230" fill="1" layer="-1.00" shape="2697.374225,1961.491600 2706.807631,1955.829381 2702.518395,1948.773273 2693.084997,1954.446559 2697.374225,1961.491600"/>
    <poly id="526130236" type="building.yes" color="255,230,230" fill="1" layer="-1.00" shape="2688.988842,1952.336490 2717.131285,1934.962681 2726.988992,1934.534016 2729.941383,1937.331092 2750.916668,1923.869341 2750.767956,1921.778119 2716.134432,1922.924443 2715.716698,1925.580466 2696.704323,1926.016747 2687.989062,1936.801615 2688.988842,1952.336490"/>
    <poly id="526130237" type="building.yes" color="255,230,230" fill="1" layer="-1.00" shape="2833.022643,1958.933887 2843.111242,1958.427637 2842.684388,1950.029413 2832.595785,1950.535662 2833.022643,1958.933887"/>
    <poly id="526130238" type="building.yes" color="255,230,230" fill="1" layer="-1.00" shape="2791.913499,1962.331662 2798.957756,1962.082407 2798.667590,1953.960703 2791.623330,1954.209959 2791.913499,1962.331662"/>
    <poly id="526130239" type="building.yes" color="255,230,230" fill="1" layer="-1.00" shape="2781.607745,1928.745875 2789.923022,1942.039514 2794.749844,1939.047890 2786.434579,1925.765315 2781.607745,1928.745875"/>
    <poly id="526130240" type="building.yes" color="255,230,230" fill="1" layer="-1.00" shape="2790.371956,1964.424281 2789.506896,1946.654096 2778.389462,1947.183356 2779.244034,1964.953550 2790.371956,1964.424281"/>
    <poly id="526130241" type="building.yes" color="255,230,230" fill="1" layer="-1.00" shape="2759.372967,1942.618051 2764.229510,1950.171642 2766.552654,1953.777013 2768.892582,1952.292324 2784.852349,1942.143293 2777.672668,1930.984324 2759.372967,1942.618051"/>
    <poly id="526130242" type="building.yes" color="255,230,230" fill="1" layer="-1.00" shape="2749.667458,1949.342738 2754.177097,1956.343348 2762.403540,1951.091575 2757.893912,1944.102028 2749.667458,1949.342738"/>
    <poly id="526130243" type="building.yes" color="255,230,230" fill="1" layer="-1.00" shape="2726.029777,1967.841420 2754.468089,1965.438798 2747.411685,1951.026535 2725.459371,1963.637072 2726.029777,1967.841420"/>
    <poly id="526130244" type="building.yes" color="255,230,230" fill="1" layer="-1.00" shape="2741.544107,2002.960937 2749.428303,2002.810554 2749.285433,1995.098145 2741.401233,1995.248529 2741.544107,2002.960937"/>