<?xml version="1.0" encoding="UTF-8"?>

<!-- generated on 2022-03-04 17:01:10 by Eclipse SUMO duarouter Version 1.12.0
<configuration xmlns:xsi="http://www.w3.org/2001/XMLSchema-instance" xsi:noNamespaceSchemaLocation="http://sumo.dlr.de/xsd/duarouterConfiguration.xsd">

    <input>
        <net-file value="/home/andreas/Sumo/2022-03-04-16-59-52/osm.net.xml"/>
        <route-files value="/home/andreas/Sumo/2022-03-04-16-59-52/osm.passenger.trips.xml"/>
    </input>

    <output>
        <output-file value="/home/andreas/Sumo/2022-03-04-16-59-52/osm.passenger.trips.xml.tmp"/>
        <write-trips value="true"/>
    </output>

    <time>
        <begin value="0"/>
        <end value="3600"/>
    </time>

    <report>
        <no-warnings value="true"/>
        <ignore-errors value="true"/>
        <no-step-log value="true"/>
    </report>

</configuration>
-->

<routes xmlns:xsi="http://www.w3.org/2001/XMLSchema-instance" xsi:noNamespaceSchemaLocation="http://sumo.dlr.de/xsd/routes_file.xsd">
    <vType id="veh_passenger" vClass="passenger"/>
    <trip id="veh0" type="veh_passenger" depart="0.00" departLane="best" from="19828561#1" to="-149849326#5"/>
    <trip id="veh1" type="veh_passenger" depart="0.57" departLane="best" from="-436445308#2" to="-29491064#1"/>
    <trip id="veh2" type="veh_passenger" depart="1.13" departLane="best" from="30962393#3" to="29435079#6"/>
    <trip id="veh3" type="veh_passenger" depart="1.70" departLane="best" from="51807954#1" to="-153604237#10"/>
    <trip id="veh4" type="veh_passenger" depart="2.26" departLane="best" from="103764004#2" to="-150062521#1"/>
    <trip id="veh5" type="veh_passenger" depart="2.83" departLane="best" from="-27474833#3" to="153617277#2"/>
    <trip id="veh6" type="veh_passenger" depart="3.40" departLane="best" from="-149849326#5" to="-23451230#5"/>
    <trip id="veh7" type="veh_passenger" depart="3.96" departLane="best" from="212891839#1" to="156350676#1"/>
    <trip id="veh8" type="veh_passenger" depart="4.53" departLane="best" departSpeed="max" from="-278531184" to="15815831#4"/>
    <trip id="veh9" type="veh_passenger" depart="5.09" departLane="best" from="4394944#4" to="-103406017#2"/>
    <trip id="veh10" type="veh_passenger" depart="5.66" departLane="best" from="4378695#1" to="30674136#2"/>
    <trip id="veh11" type="veh_passenger" depart="6.22" departLane="best" from="-5096381#3" to="-156597541#2"/>
    <trip id="veh12" type="veh_passenger" depart="6.79" departLane="best" from="779835107#5" to="-589643562#9"/>
    <trip id="veh13" type="veh_passenger" depart="7.36" departLane="best" from="-153608604#0" to="-153617368#2"/>
    <trip id="veh14" type="veh_passenger" depart="7.92" departLane="best" from="4684161#4" to="175081979#1"/>
    <trip id="veh15" type="veh_passenger" depart="8.49" departLane="best" from="4394891" to="311149289#0"/>
    <trip id="veh16" type="veh_passenger" depart="9.05" departLane="best" from="154687900#2" to="829543514#5"/>
    <trip id="veh17" type="veh_passenger" depart="9.62" departLane="best" from="-73283080#0" to="156350687#1"/>
    <trip id="veh18" type="veh_passenger" depart="10.19" departLane="best" from="45356981" to="182947565#4"/>
    <trip id="veh19" type="veh_passenger" depart="10.75" departLane="best" from="479888978#1" to="156579521#16"/>
    <trip id="veh20" type="veh_passenger" depart="11.32" departLane="best" from="30084959#2" to="-151372781#0"/>
    <trip id="veh21" type="veh_passenger" depart="11.88" departLane="best" from="-284494942#13" to="-4677910#4"/>
    <trip id="veh22" type="veh_passenger" depart="12.45" departLane="best" from="-152596647#1" to="-30699235#14"/>
    <trip id="veh23" type="veh_passenger" depart="13.01" departLane="best" from="-153617372#0" to="-44360530#2"/>
    <trip id="veh24" type="veh_passenger" depart="13.58" departLane="best" from="19784005#1" to="-771162849#1"/>
    <trip id="veh25" type="veh_passenger" depart="14.15" departLane="best" from="-700034140#8" to="-27474907#0"/>
    <trip id="veh26" type="veh_passenger" depart="14.71" departLane="best" from="-387487577#4" to="72307633#10"/>
    <trip id="veh27" type="veh_passenger" depart="15.28" departLane="best" from="211575791#0" to="176089775#2"/>
    <trip id="veh28" type="veh_passenger" depart="15.84" departLane="best" from="-160765449#3" to="311105516#1"/>
    <trip id="veh29" type="veh_passenger" depart="16.41" departLane="best" from="-156597548#2" to="-836498474#4"/>
    <trip id="veh31" type="veh_passenger" depart="17.54" departLane="best" from="156350661#8" to="29887243#0"/>
    <trip id="veh32" type="veh_passenger" depart="18.11" departLane="best" from="4677871#4" to="39981589#0"/>
    <trip id="veh33" type="veh_passenger" depart="18.67" departLane="best" from="-28464183" to="-151353900#4"/>
    <trip id="veh34" type="veh_passenger" depart="19.24" departLane="best" from="-4792207#8" to="-4394943#3"/>
    <trip id="veh35" type="veh_passenger" depart="19.80" departLane="best" from="-25414821#8" to="73057254#2"/>
    <trip id="veh36" type="veh_passenger" depart="20.37" departLane="best" from="49140532#4" to="-482983238#0"/>
    <trip id="veh38" type="veh_passenger" depart="21.50" departLane="best" from="60913017#2" to="151618882#0"/>
    <trip id="veh39" type="veh_passenger" depart="22.07" departLane="best" from="-379754345#1" to="-325000951#13"/>
    <trip id="veh40" type="veh_passenger" depart="22.63" departLane="best" from="156350678#0" to="-4361349#1"/>
    <trip id="veh41" type="veh_passenger" depart="23.20" departLane="best" from="156579487#5" to="589687024#7"/>
    <trip id="veh42" type="veh_passenger" depart="23.77" departLane="best" departSpeed="max" from="-837200677#2" to="-28464183"/>
    <trip id="veh43" type="veh_passenger" depart="24.33" departLane="best" from="966158287#2" to="153617362#13"/>
    <trip id="veh44" type="veh_passenger" depart="24.90" departLane="best" from="-153604248#4" to="-151456841#18"/>
    <trip id="veh45" type="veh_passenger" depart="25.46" departLane="best" departSpeed="max" from="-154687899#3" to="200767372#0"/>
    <trip id="veh46" type="veh_passenger" depart="26.03" departLane="best" from="42752175" to="149849307#3"/>
    <trip id="veh47" type="veh_passenger" depart="26.59" departLane="best" from="-152434827#6" to="-837200677#1"/>
    <trip id="veh48" type="veh_passenger" depart="27.16" departLane="best" departSpeed="max" from="947307091#0" to="154838387#2"/>
    <trip id="veh49" type="veh_passenger" depart="27.73" departLane="best" from="804991972#0" to="4829120#3"/>
    <trip id="veh50" type="veh_passenger" depart="28.29" departLane="best" from="-114381386#4" to="30962289#33"/>
    <trip id="veh51" type="veh_passenger" depart="28.86" departLane="best" departSpeed="max" from="28505651#0" to="156346080#4"/>
    <trip id="veh52" type="veh_passenger" depart="29.42" departLane="best" from="-387487577#3" to="231386638#2"/>
    <trip id="veh53" type="veh_passenger" depart="29.99" departLane="best" from="-154689076#0" to="151353900#3"/>
    <trip id="veh54" type="veh_passenger" depart="30.56" departLane="best" departSpeed="max" from="151353905#0" to="785567937#1"/>
    <trip id="veh55" type="veh_passenger" depart="31.12" departLane="best" from="48848041#8" to="-436445301#0"/>
    <trip id="veh56" type="veh_passenger" depart="31.69" departLane="best" from="152593441#1" to="-181092057#7"/>
    <trip id="veh57" type="veh_passenger" depart="32.25" departLane="best" from="606343122#0" to="49163434#3"/>
    <trip id="veh58" type="veh_passenger" depart="32.82" departLane="best" from="-4662739#0" to="22910107#4"/>
    <trip id="veh59" type="veh_passenger" depart="33.38" departLane="best" from="160765508#13" to="-156597534#1"/>
    <trip id="veh60" type="veh_passenger" depart="33.95" departLane="best" from="35072919" to="156350660#13"/>
    <trip id="veh61" type="veh_passenger" depart="34.52" departLane="best" from="37910336#7" to="154838407#2"/>
    <trip id="veh62" type="veh_passenger" depart="35.08" departLane="best" from="-103096147#1" to="-5095716#2"/>
    <trip id="veh63" type="veh_passenger" depart="35.65" departLane="best" from="-143949951#0" to="702310761#2"/>
    <trip id="veh64" type="veh_passenger" depart="36.21" departLane="best" from="495037156#5" to="463503938#3"/>
    <trip id="veh65" type="veh_passenger" depart="36.78" departLane="best" from="-4713222#7" to="-152177249"/>
    <trip id="veh66" type="veh_passenger" depart="37.35" departLane="best" from="491785842#2" to="771241479#20"/>
    <trip id="veh67" type="veh_passenger" depart="37.91" departLane="best" from="-153604221#3" to="152593449#1"/>
    <trip id="veh68" type="veh_passenger" depart="38.48" departLane="best" from="-152593435#0" to="37910329#7"/>
    <trip id="veh69" type="veh_passenger" depart="39.04" departLane="best" from="37815458#1" to="-156350674"/>
    <trip id="veh70" type="veh_passenger" depart="39.61" departLane="best" from="151618244#6" to="156350680#2"/>
    <trip id="veh71" type="veh_passenger" depart="40.17" departLane="best" from="-379754345#2" to="496836945#2"/>
    <trip id="veh72" type="veh_passenger" depart="40.74" departLane="best" from="106248928#2" to="-282282743#0"/>
    <trip id="veh73" type="veh_passenger" depart="41.31" departLane="best" from="154837267#10" to="311149289#1"/>
    <trip id="veh74" type="veh_passenger" depart="41.87" departLane="best" from="-223063299" to="-4829120#2"/>
    <trip id="veh75" type="veh_passenger" depart="42.44" departLane="best" from="947014754#6" to="25415937#14"/>
    <trip id="veh76" type="veh_passenger" depart="43.00" departLane="best" from="140270693#1" to="154687894#1"/>
    <trip id="veh77" type="veh_passenger" depart="43.57" departLane="best" from="-154838408#2" to="-29697721#5"/>
    <trip id="veh78" type="veh_passenger" depart="44.14" departLane="best" from="-5095719#13" to="156597548#6"/>
    <trip id="veh79" type="veh_passenger" depart="44.70" departLane="best" from="-286198247#14" to="-28505651#1"/>
    <trip id="veh80" type="veh_passenger" depart="45.27" departLane="best" from="-152593437#2" to="205735222#0"/>
    <trip id="veh81" type="veh_passenger" depart="45.83" departLane="best" from="-284494942#9" to="60728013#1"/>
    <trip id="veh82" type="veh_passenger" depart="46.40" departLane="best" from="4792209#1" to="-152593442#10"/>
    <trip id="veh83" type="veh_passenger" depart="46.96" departLane="best" from="-30084960#2" to="286198247#23"/>
    <trip id="veh84" type="veh_passenger" depart="47.53" departLane="best" from="-25415937#10" to="-156350689#1"/>
    <trip id="veh85" type="veh_passenger" depart="48.10" departLane="best" from="700034140#7" to="156579493#4"/>
    <trip id="veh86" type="veh_passenger" depart="48.66" departLane="best" from="151456841#5" to="409588151#0"/>
    <trip id="veh87" type="veh_passenger" depart="49.23" departLane="best" from="4394943#10" to="-200767375#0"/>
    <trip id="veh88" type="veh_passenger" depart="49.79" departLane="best" from="-153617311#3" to="150057236#1"/>
    <trip id="veh89" type="veh_passenger" depart="50.36" departLane="best" from="30962287#3" to="29434387#0"/>
    <trip id="veh90" type="veh_passenger" depart="50.93" departLane="best" from="843189064#4" to="-153617389#1"/>
    <trip id="veh91" type="veh_passenger" depart="51.49" departLane="best" from="-843189064#4" to="-589691160#0"/>
    <trip id="veh92" type="veh_passenger" depart="52.06" departLane="best" from="479888978#1" to="-34332362#2"/>
    <trip id="veh93" type="veh_passenger" depart="52.62" departLane="best" from="-183087824#4" to="151370247#6"/>
    <trip id="veh94" type="veh_passenger" depart="53.19" departLane="best" from="103764004#2" to="-445011478#3"/>
    <trip id="veh95" type="veh_passenger" depart="53.75" departLane="best" from="-31153216#0" to="674133614#7"/>
    <trip id="veh96" type="veh_passenger" depart="54.32" departLane="best" from="149849315#6" to="4829121#1"/>
    <trip id="veh97" type="veh_passenger" depart="54.89" departLane="best" from="156346065#2" to="-151618247#2"/>
    <trip id="veh98" type="veh_passenger" depart="55.45" departLane="best" from="98889107#3" to="4663347#9"/>
    <trip id="veh99" type="veh_passenger" depart="56.02" departLane="best" from="804991967#0" to="69409362#1"/>
    <trip id="veh100" type="veh_passenger" depart="56.58" departLane="best" from="4713222#0" to="-169753571#2"/>
    <trip id="veh101" type="veh_passenger" depart="57.15" departLane="best" from="152177242#1" to="-282985769#10"/>
    <trip id="veh102" type="veh_passenger" depart="57.72" departLane="best" from="-837200683#2" to="-152434822"/>
    <trip id="veh103" type="veh_passenger" depart="58.28" departLane="best" from="-766001206" to="844527457#8"/>
    <trip id="veh104" type="veh_passenger" depart="58.85" departLane="best" from="-379754345#4" to="404580768#3"/>
    <trip id="veh105" type="veh_passenger" depart="59.41" departLane="best" from="151353913#1" to="149849314#3"/>
    <trip id="veh106" type="veh_passenger" depart="59.98" departLane="best" from="779835107#9" to="947306656#2"/>
    <trip id="veh107" type="veh_passenger" depart="60.55" departLane="best" from="156350660#8" to="30962289#19"/>
    <trip id="veh108" type="veh_passenger" depart="61.11" departLane="best" from="-156579508#8" to="-4713991#4"/>
    <trip id="veh110" type="veh_passenger" depart="62.24" departLane="best" from="154837296#4" to="327627453#1"/>
    <trip id="veh111" type="veh_passenger" depart="62.81" departLane="best" from="-151620795#1" to="156597539#1"/>
    <trip id="veh112" type="veh_passenger" depart="63.37" departLane="best" from="152593442#3" to="479886082#1"/>
    <trip id="veh113" type="veh_passenger" depart="63.94" departLane="best" from="-156579522#0" to="804279760#4"/>
    <trip id="veh114" type="veh_passenger" depart="64.51" departLane="best" from="-152596648#2" to="-19786304#2"/>
    <trip id="veh115" type="veh_passenger" depart="65.07" departLane="best" from="156597527#2" to="29434388#3"/>
    <trip id="veh116" type="veh_passenger" depart="65.64" departLane="best" from="-29698504#1" to="-156346077#1"/>
    <trip id="veh117" type="veh_passenger" depart="66.20" departLane="best" from="5110865#2" to="-325000951#1"/>
    <trip id="veh118" type="veh_passenger" depart="66.77" departLane="best" departSpeed="max" from="156597527#0" to="183089174"/>
    <trip id="veh119" type="veh_passenger" depart="67.34" departLane="best" from="103405421#2" to="156597536#3"/>
    <trip id="veh120" type="veh_passenger" depart="67.90" departLane="best" from="153617298#2" to="71834345#3"/>
    <trip id="veh121" type="veh_passenger" depart="68.47" departLane="best" from="-22910107#5" to="30962287#7"/>
    <trip id="veh122" type="veh_passenger" depart="69.03" departLane="best" from="-30084961#3" to="1025418561"/>
    <trip id="veh123" type="veh_passenger" depart="69.60" departLane="best" from="28100651#2" to="-47586922#8"/>
    <trip id="veh124" type="veh_passenger" depart="70.16" departLane="best" from="-479886082#1" to="340089611#5"/>
    <trip id="veh125" type="veh_passenger" depart="70.73" departLane="best" from="-152593441#2" to="151618249#0"/>
    <trip id="veh126" type="veh_passenger" depart="71.30" departLane="best" from="97243018#1" to="948929090"/>
    <trip id="veh127" type="veh_passenger" depart="71.86" departLane="best" from="-152593442#14" to="-28275973#8"/>
    <trip id="veh128" type="veh_passenger" depart="72.43" departLane="best" from="-379754345#4" to="71527205#5"/>
    <trip id="veh129" type="veh_passenger" depart="72.99" departLane="best" from="505304355#1" to="5096264#7"/>
    <trip id="veh130" type="veh_passenger" depart="73.56" departLane="best" from="-700034140#14" to="-15815831#1"/>
    <trip id="veh131" type="veh_passenger" depart="74.13" departLane="best" from="459221258#2" to="30699235#12"/>
    <trip id="veh132" type="veh_passenger" depart="74.69" departLane="best" departSpeed="max" from="164591627" to="844639717#0"/>
    <trip id="veh133" type="veh_passenger" depart="75.26" departLane="best" from="22910107#4" to="-103764004#1"/>
    <trip id="veh134" type="veh_passenger" depart="75.82" departLane="best" from="44166803#7" to="-47586922#12"/>
    <trip id="veh135" type="veh_passenger" depart="76.39" departLane="best" from="25415810#4" to="72307633#2"/>
    <trip id="veh136" type="veh_passenger" depart="76.95" departLane="best" from="-156350675#1" to="-154838407#6"/>
    <trip id="veh137" type="veh_passenger" depart="77.52" departLane="best" departSpeed="max" from="-154687891#5" to="156350688#7"/>
    <trip id="veh138" type="veh_passenger" depart="78.09" departLane="best" from="-4357826#2" to="175081979#9"/>
    <trip id="veh139" type="veh_passenger" depart="78.65" departLane="best" from="30699235#6" to="-25415807#8"/>
    <trip id="veh140" type="veh_passenger" depart="79.22" departLane="best" departSpeed="max" from="195081730#0" to="-436445301#5"/>
    <trip id="veh141" type="veh_passenger" depart="79.78" departLane="best" departSpeed="max" from="152434822" to="60728013#1"/>
    <trip id="veh142" type="veh_passenger" depart="80.35" departLane="best" departSpeed="max" from="4684161#0" to="-153617298#2"/>
    <trip id="veh143" type="veh_passenger" depart="80.92" departLane="best" from="106248943#3" to="-4434001#2"/>
    <trip id="veh144" type="veh_passenger" depart="81.48" departLane="best" from="-103405410#1" to="379754345#3"/>
    <trip id="veh145" type="veh_passenger" depart="82.05" departLane="best" departSpeed="max" from="19786304#0" to="-4357829#3"/>
    <trip id="veh146" type="veh_passenger" depart="82.61" departLane="best" from="31003580#1" to="156350680#8"/>
    <trip id="veh147" type="veh_passenger" depart="83.18" departLane="best" from="116703661#0" to="-106248943#4"/>
    <trip id="veh148" type="veh_passenger" depart="83.74" departLane="best" from="-152593447" to="511006147"/>
    <trip id="veh149" type="veh_passenger" depart="84.31" departLane="best" from="589687024#19" to="156350678#0"/>
    <trip id="veh150" type="veh_passenger" depart="84.88" departLane="best" from="4603503" to="156597534#5"/>
    <trip id="veh151" type="veh_passenger" depart="85.44" departLane="best" from="-156579480#2" to="-156350671#0"/>
    <trip id="veh152" type="veh_passenger" depart="86.01" departLane="best" departSpeed="max" from="-4713991#5" to="589691160#13"/>
    <trip id="veh153" type="veh_passenger" depart="86.57" departLane="best" from="431727417" to="4829120#2"/>
    <trip id="veh154" type="veh_passenger" depart="87.14" departLane="best" from="550428748#2" to="-278495132#1"/>
    <trip id="veh155" type="veh_passenger" depart="87.71" departLane="best" from="-311149291#7" to="-154687888#3"/>
    <trip id="veh156" type="veh_passenger" depart="88.27" departLane="best" from="38198840#1" to="5110865#5"/>
    <trip id="veh157" type="veh_passenger" depart="88.84" departLane="best" departSpeed="max" from="-870239104#2" to="195081730#1"/>
    <trip id="veh158" type="veh_passenger" depart="89.40" departLane="best" from="-156579508#5" to="702310769#5"/>
    <trip id="veh159" type="veh_passenger" depart="89.97" departLane="best" from="4828060#8" to="836498474#4"/>
    <trip id="veh160" type="veh_passenger" depart="90.53" departLane="best" departSpeed="max" from="4395057#0" to="5096537#1"/>
    <trip id="veh161" type="veh_passenger" depart="91.10" departLane="best" from="-149849318#1" to="320823303#7"/>
    <trip id="veh162" type="veh_passenger" depart="91.67" departLane="best" from="-491785842#1" to="708434640#0"/>
    <trip id="veh163" type="veh_passenger" depart="92.23" departLane="best" from="436445308#6" to="4829291#9"/>
    <trip id="veh164" type="veh_passenger" depart="92.80" departLane="best" departSpeed="max" from="4395057#0" to="-438655142#2"/>
    <trip id="veh165" type="veh_passenger" depart="93.36" departLane="best" from="40233846#3" to="-154837267#0"/>
    <trip id="veh166" type="veh_passenger" depart="93.93" departLane="best" from="482983238#0" to="4829110#15"/>
    <trip id="veh167" type="veh_passenger" depart="94.50" departLane="best" from="-28275973#2" to="445535613#0"/>
    <trip id="veh168" type="veh_passenger" depart="95.06" departLane="best" from="151354736#5" to="-4792209#3"/>
    <trip id="veh169" type="veh_passenger" depart="95.63" departLane="best" from="427577084" to="-30084960#11"/>
    <trip id="veh170" type="veh_passenger" depart="96.19" departLane="best" departSpeed="max" from="-149849316#2" to="-210080958#2"/>
    <trip id="veh171" type="veh_passenger" depart="96.76" departLane="best" from="-48848041#1" to="482983238#1"/>
    <trip id="veh172" type="veh_passenger" depart="97.32" departLane="best" from="804908631#1" to="-451621860"/>
    <trip id="veh173" type="veh_passenger" depart="97.89" departLane="best" from="200767368#0" to="103405415#2"/>
    <trip id="veh174" type="veh_passenger" depart="98.46" departLane="best" from="837200677#0" to="156346080#12"/>
    <trip id="veh175" type="veh_passenger" depart="99.02" departLane="best" from="708595512#1" to="-154838407#5"/>
    <trip id="veh176" type="veh_passenger" depart="99.59" departLane="best" from="804991971#6" to="-181092057#6"/>
    <trip id="veh177" type="veh_passenger" depart="100.15" departLane="best" from="793361251" to="-4378528#0"/>
    <trip id="veh178" type="veh_passenger" depart="100.72" departLane="best" from="-154687897#0" to="150103072#5"/>
    <trip id="veh179" type="veh_passenger" depart="101.29" departLane="best" from="30962287#18" to="-4829291#16"/>
    <trip id="veh180" type="veh_passenger" depart="101.85" departLane="best" from="158580757#3" to="153617372#3"/>
    <trip id="veh181" type="veh_passenger" depart="102.42" departLane="best" from="-793358797#7" to="156579521#12"/>
    <trip id="veh182" type="veh_passenger" depart="102.98" departLane="best" from="-32131090#2" to="30958167#7"/>
    <trip id="veh183" type="veh_passenger" depart="103.55" departLane="best" from="-103405406#3" to="693195985#1"/>
    <trip id="veh184" type="veh_passenger" depart="104.11" departLane="best" from="154689096#2" to="30962289#27"/>
    <trip id="veh185" type="veh_passenger" depart="104.68" departLane="best" from="311105516#0" to="28680187#5"/>
    <trip id="veh186" type="veh_passenger" depart="105.25" departLane="best" from="-674131248#1" to="-152593439#5"/>
    <trip id="veh187" type="veh_passenger" depart="105.81" departLane="best" from="25415937#6" to="-51807954#0"/>
    <trip id="veh190" type="veh_passenger" depart="107.51" departLane="best" from="-4719082#2" to="114381386#4"/>
    <trip id="veh191" type="veh_passenger" depart="108.08" departLane="best" from="-843189064#2" to="-4713222#7"/>
    <trip id="veh192" type="veh_passenger" depart="108.64" departLane="best" from="-156346080#9" to="143949951#3"/>
    <trip id="veh193" type="veh_passenger" depart="109.21" departLane="best" from="71527205#4" to="29546980#1"/>
    <trip id="veh194" type="veh_passenger" depart="109.77" departLane="best" from="589685195#5" to="182736779#2"/>
    <trip id="veh195" type="veh_passenger" depart="110.34" departLane="best" from="-4663347#6" to="156350680#12"/>
    <trip id="veh196" type="veh_passenger" depart="110.90" departLane="best" departSpeed="max" from="-1025418561" to="-4663228#1"/>
    <trip id="veh197" type="veh_passenger" depart="111.47" departLane="best" from="121483965#0" to="156597527#3"/>
    <trip id="veh198" type="veh_passenger" depart="112.04" departLane="best" from="231386638#0" to="151621386#11"/>
    <trip id="veh199" type="veh_passenger" depart="112.60" departLane="best" from="149849314#4" to="-282985769#10"/>
    <trip id="veh200" type="veh_passenger" depart="113.17" departLane="best" from="151457916#1" to="589694466#1"/>
    <trip id="veh201" type="veh_passenger" depart="113.73" departLane="best" from="431727417" to="-175081979#10"/>
    <trip id="veh202" type="veh_passenger" depart="114.30" departLane="best" from="-153604221#14" to="154687886#0"/>
    <trip id="veh203" type="veh_passenger" depart="114.87" departLane="best" from="18631701#3" to="-574720666"/>
    <trip id="veh205" type="veh_passenger" depart="116.00" departLane="best" from="28100661#0" to="-29697721#5"/>
    <trip id="veh206" type="veh_passenger" depart="116.56" departLane="best" from="-205508138#1" to="-149849326#12"/>
    <trip id="veh207" type="veh_passenger" depart="117.13" departLane="best" from="-30958679#1" to="152434835#3"/>
    <trip id="veh208" type="veh_passenger" depart="117.70" departLane="best" from="4713303#1" to="-152593442#5"/>
    <trip id="veh209" type="veh_passenger" depart="118.26" departLane="best" departSpeed="max" from="103096147#0" to="200775246#0"/>
    <trip id="veh210" type="veh_passenger" depart="118.83" departLane="best" from="-200767356" to="30244894#0"/>
    <trip id="veh211" type="veh_passenger" depart="119.39" departLane="best" from="152434842#5" to="-320823313#3"/>
    <trip id="veh212" type="veh_passenger" depart="119.96" departLane="best" from="24319026" to="-103405421#5"/>
    <trip id="veh213" type="veh_passenger" depart="120.52" departLane="best" from="320823311#7" to="37910336#4"/>
    <trip id="veh214" type="veh_passenger" depart="121.09" departLane="best" departSpeed="max" from="-154687888#6" to="149849317#2"/>
    <trip id="veh215" type="veh_passenger" depart="121.66" departLane="best" from="-169760008#3" to="8008819#5"/>
    <trip id="veh216" type="veh_passenger" depart="122.22" departLane="best" from="153604237#5" to="-151618245#3"/>
    <trip id="veh217" type="veh_passenger" depart="122.79" departLane="best" from="-311149291#3" to="4792141#3"/>
    <trip id="veh218" type="veh_passenger" depart="123.35" departLane="best" from="151353923#0" to="4394943#11"/>
    <trip id="veh219" type="veh_passenger" depart="123.92" departLane="best" from="26807992#4" to="854788999"/>
    <trip id="veh220" type="veh_passenger" depart="124.49" departLane="best" departSpeed="max" from="156597528#0" to="779835107#22"/>
    <trip id="veh221" type="veh_passenger" depart="125.05" departLane="best" from="5110865#7" to="176372126#7"/>
    <trip id="veh222" type="veh_passenger" depart="125.62" departLane="best" from="30709737#0" to="153617269#0"/>
    <trip id="veh223" type="veh_passenger" depart="126.18" departLane="best" from="45359278#5" to="156350680#11"/>
    <trip id="veh224" type="veh_passenger" depart="126.75" departLane="best" from="5364954#1" to="325000951#11"/>
    <trip id="veh225" type="veh_passenger" depart="127.31" departLane="best" from="151618244#15" to="-419818727"/>
    <trip id="veh226" type="veh_passenger" depart="127.88" departLane="best" from="-31003576#1" to="22910101#1"/>
    <trip id="veh227" type="veh_passenger" depart="128.45" departLane="best" from="37815458#0" to="154687902#1"/>
    <trip id="veh228" type="veh_passenger" depart="129.01" departLane="best" from="180482046#3" to="-442545054"/>
    <trip id="veh229" type="veh_passenger" depart="129.58" departLane="best" from="-152593453#0" to="-4662739#1"/>
    <trip id="veh230" type="veh_passenger" depart="130.14" departLane="best" from="-42752557#3" to="-491785842#0"/>
    <trip id="veh231" type="veh_passenger" depart="130.71" departLane="best" from="154837273#1" to="-156579471#5"/>
    <trip id="veh232" type="veh_passenger" depart="131.28" departLane="best" from="-286198247#3" to="30084964#3"/>
    <trip id="veh233" type="veh_passenger" depart="131.84" departLane="best" from="30084960#15" to="-152434842#2"/>
    <trip id="veh234" type="veh_passenger" depart="132.41" departLane="best" from="-877425885#3" to="156350666#0"/>
    <trip id="veh235" type="veh_passenger" depart="132.97" departLane="best" from="103405406#4" to="-26807992#12"/>
    <trip id="veh236" type="veh_passenger" depart="133.54" departLane="best" from="103405422#4" to="606345012"/>
    <trip id="veh237" type="veh_passenger" depart="134.10" departLane="best" from="156579486#9" to="30198072#4"/>
    <trip id="veh238" type="veh_passenger" depart="134.67" departLane="best" departSpeed="max" from="4792141#0" to="37910332#4"/>
    <trip id="veh239" type="veh_passenger" depart="135.24" departLane="best" from="-771241479#2" to="-103405422#2"/>
    <trip id="veh240" type="veh_passenger" depart="135.80" departLane="best" from="-589691160#1" to="35072914#0"/>
    <trip id="veh241" type="veh_passenger" depart="136.37" departLane="best" from="47586921#3" to="785567935#2"/>
    <trip id="veh242" type="veh_passenger" depart="136.93" departLane="best" from="103405419" to="327627453#1"/>
    <trip id="veh243" type="veh_passenger" depart="137.50" departLane="best" from="154838407#3" to="175081977#6"/>
    <trip id="veh244" type="veh_passenger" depart="138.07" departLane="best" departSpeed="max" from="-278531184" to="-28489737"/>
    <trip id="veh245" type="veh_passenger" depart="138.63" departLane="best" from="13853637#0" to="-150057236#7"/>
    <trip id="veh246" type="veh_passenger" depart="139.20" departLane="best" from="-5095679#9" to="29640145"/>
    <trip id="veh247" type="veh_passenger" depart="139.76" departLane="best" from="-844527463#1" to="-160765601"/>
    <trip id="veh248" type="veh_passenger" depart="140.33" departLane="best" from="151370247#9" to="-156350671#2"/>
    <trip id="veh249" type="veh_passenger" depart="140.89" departLane="best" from="176089784#1" to="-149849709#3"/>
    <trip id="veh250" type="veh_passenger" depart="141.46" departLane="best" from="-835377409#3" to="156579475#28"/>
    <trip id="veh251" type="veh_passenger" depart="142.03" departLane="best" from="-149849327#1" to="24319029#0"/>
    <trip id="veh252" type="veh_passenger" depart="142.59" departLane="best" from="-156350678#4" to="151619286#1"/>
    <trip id="veh253" type="veh_passenger" depart="143.16" departLane="best" from="-151457916#1" to="-836498474#1"/>
    <trip id="veh254" type="veh_passenger" depart="143.72" departLane="best" from="-25415807#10" to="-5096264#12"/>
    <trip id="veh256" type="veh_passenger" depart="144.86" departLane="best" departSpeed="max" from="32131090#0" to="463503938#5"/>